966
XYZ file generated by QuantumATK for match 37
Li 0.4261 -0.1162 1.0000
Li 14.6294 -0.1162 1.0000
F 2.4146 -0.4003 1.0000
F 16.6179 -0.4003 1.0000
Li 4.4030 -0.6843 1.0000
Li 18.6063 -0.6843 1.0000
F 6.3915 -0.9684 1.0000
F 20.5948 -0.9684 1.0000
Li 8.3799 -1.2525 1.0000
Li 22.5832 -1.2525 1.0000
F 10.3684 -1.5365 1.0000
F 24.5717 -1.5365 1.0000
Li 12.3569 -1.8206 1.0000
Li 26.5602 -1.8206 1.0000
F 14.3453 -2.1047 1.0000
F 0.1420 -2.1047 1.0000
Li 2.1305 -2.3887 1.0000
Li 16.3338 -2.3887 1.0000
F 4.1190 -2.6728 1.0000
F 18.3223 -2.6728 1.0000
Li 6.1074 -2.9569 1.0000
Li 20.3107 -2.9569 1.0000
F 8.0959 -3.2409 1.0000
F 22.2992 -3.2409 1.0000
Li 10.0843 -3.5250 1.0000
Li 24.2876 -3.5250 1.0000
F 12.0728 -3.8091 1.0000
F 26.2761 -3.8091 1.0000
Li 14.0613 -4.0931 1.0000
Li 28.2646 -4.0931 1.0000
F 1.8464 -4.3772 1.0000
F 16.0497 -4.3772 1.0000
Li 3.8349 -4.6613 1.0000
Li 18.0382 -4.6613 1.0000
F 5.8234 -4.9453 1.0000
F 20.0267 -4.9453 1.0000
Li 7.8118 -5.2294 1.0000
Li 22.0151 -5.2294 1.0000
F 9.8003 -5.5135 1.0000
F 24.0036 -5.5135 1.0000
Li 11.7887 -5.7975 1.0000
Li 25.9920 -5.7975 1.0000
F 13.7772 -6.0816 1.0000
F 27.9805 -6.0816 1.0000
Li 1.5624 -6.3657 1.0000
Li 15.7657 -6.3657 1.0000
F 3.5508 -6.6497 1.0000
F 17.7541 -6.6497 1.0000
Li 5.5393 -6.9338 1.0000
Li 19.7426 -6.9338 1.0000
F 7.5277 -7.2179 1.0000
F 21.7310 -7.2179 1.0000
Li 9.5162 -7.5019 1.0000
Li 23.7195 -7.5019 1.0000
F 11.5047 -7.7860 1.0000
F 25.7080 -7.7860 1.0000
Li 13.4931 -8.0701 1.0000
Li 27.6964 -8.0701 1.0000
F 1.2783 -8.3541 1.0000
F 15.4816 -8.3541 1.0000
Li 3.2668 -8.6382 1.0000
Li 17.4701 -8.6382 1.0000
F 5.2552 -8.9223 1.0000
F 19.4585 -8.9223 1.0000
Li 7.2437 -9.2063 1.0000
Li 21.4470 -9.2063 1.0000
F 9.2321 -9.4904 1.0000
F 23.4354 -9.4904 1.0000
Li 11.2206 -9.7745 1.0000
Li 25.4239 -9.7745 1.0000
F 13.2091 -10.0585 1.0000
F 27.4124 -10.0585 1.0000
F 0.4261 -0.1162 3.0086
F 14.6294 -0.1162 3.0086
Li 2.4146 -0.4003 3.0086
Li 16.6179 -0.4003 3.0086
F 4.4030 -0.6843 3.0086
F 18.6063 -0.6843 3.0086
Li 6.3915 -0.9684 3.0086
Li 20.5948 -0.9684 3.0086
F 8.3799 -1.2525 3.0086
F 22.5832 -1.2525 3.0086
Li 10.3684 -1.5365 3.0086
Li 24.5717 -1.5365 3.0086
F 12.3569 -1.8206 3.0086
F 26.5602 -1.8206 3.0086
Li 14.3453 -2.1047 3.0086
Li 0.1420 -2.1047 3.0086
F 2.1305 -2.3887 3.0086
F 16.3338 -2.3887 3.0086
Li 4.1190 -2.6728 3.0086
Li 18.3223 -2.6728 3.0086
F 6.1074 -2.9569 3.0086
F 20.3107 -2.9569 3.0086
Li 8.0959 -3.2409 3.0086
Li 22.2992 -3.2409 3.0086
F 10.0843 -3.5250 3.0086
F 24.2876 -3.5250 3.0086
Li 12.0728 -3.8091 3.0086
Li 26.2761 -3.8091 3.0086
F 14.0613 -4.0931 3.0086
F 28.2646 -4.0931 3.0086
Li 1.8464 -4.3772 3.0086
Li 16.0497 -4.3772 3.0086
F 3.8349 -4.6613 3.0086
F 18.0382 -4.6613 3.0086
Li 5.8234 -4.9453 3.0086
Li 20.0267 -4.9453 3.0086
F 7.8118 -5.2294 3.0086
F 22.0151 -5.2294 3.0086
Li 9.8003 -5.5135 3.0086
Li 24.0036 -5.5135 3.0086
F 11.7887 -5.7975 3.0086
F 25.9920 -5.7975 3.0086
Li 13.7772 -6.0816 3.0086
Li 27.9805 -6.0816 3.0086
F 1.5624 -6.3657 3.0086
F 15.7657 -6.3657 3.0086
Li 3.5508 -6.6497 3.0086
Li 17.7541 -6.6497 3.0086
F 5.5393 -6.9338 3.0086
F 19.7426 -6.9338 3.0086
Li 7.5277 -7.2179 3.0086
Li 21.7310 -7.2179 3.0086
F 9.5162 -7.5019 3.0086
F 23.7195 -7.5019 3.0086
Li 11.5047 -7.7860 3.0086
Li 25.7080 -7.7860 3.0086
F 13.4931 -8.0701 3.0086
F 27.6964 -8.0701 3.0086
Li 1.2783 -8.3541 3.0086
Li 15.4816 -8.3541 3.0086
F 3.2668 -8.6382 3.0086
F 17.4701 -8.6382 3.0086
Li 5.2552 -8.9223 3.0086
Li 19.4585 -8.9223 3.0086
F 7.2437 -9.2063 3.0086
F 21.4470 -9.2063 3.0086
Li 9.2321 -9.4904 3.0086
Li 23.4354 -9.4904 3.0086
F 11.2206 -9.7745 3.0086
F 25.4239 -9.7745 3.0086
Li 13.2091 -10.0585 3.0086
Li 27.4124 -10.0585 3.0086
Li 0.4261 -0.1162 5.0173
Li 14.6294 -0.1162 5.0173
F 2.4146 -0.4003 5.0173
F 16.6179 -0.4003 5.0173
Li 4.4030 -0.6843 5.0173
Li 18.6063 -0.6843 5.0173
F 6.3915 -0.9684 5.0173
F 20.5948 -0.9684 5.0173
Li 8.3799 -1.2525 5.0173
Li 22.5832 -1.2525 5.0173
F 10.3684 -1.5365 5.0173
F 24.5717 -1.5365 5.0173
Li 12.3569 -1.8206 5.0173
Li 26.5602 -1.8206 5.0173
F 14.3453 -2.1047 5.0173
F 0.1420 -2.1047 5.0173
Li 2.1305 -2.3887 5.0173
Li 16.3338 -2.3887 5.0173
F 4.1190 -2.6728 5.0173
F 18.3223 -2.6728 5.0173
Li 6.1074 -2.9569 5.0173
Li 20.3107 -2.9569 5.0173
F 8.0959 -3.2409 5.0173
F 22.2992 -3.2409 5.0173
Li 10.0843 -3.5250 5.0173
Li 24.2876 -3.5250 5.0173
F 12.0728 -3.8091 5.0173
F 26.2761 -3.8091 5.0173
Li 14.0613 -4.0931 5.0173
Li 28.2646 -4.0931 5.0173
F 1.8464 -4.3772 5.0173
F 16.0497 -4.3772 5.0173
Li 3.8349 -4.6613 5.0173
Li 18.0382 -4.6613 5.0173
F 5.8234 -4.9453 5.0173
F 20.0267 -4.9453 5.0173
Li 7.8118 -5.2294 5.0173
Li 22.0151 -5.2294 5.0173
F 9.8003 -5.5135 5.0173
F 24.0036 -5.5135 5.0173
Li 11.7887 -5.7975 5.0173
Li 25.9920 -5.7975 5.0173
F 13.7772 -6.0816 5.0173
F 27.9805 -6.0816 5.0173
Li 1.5624 -6.3657 5.0173
Li 15.7657 -6.3657 5.0173
F 3.5508 -6.6497 5.0173
F 17.7541 -6.6497 5.0173
Li 5.5393 -6.9338 5.0173
Li 19.7426 -6.9338 5.0173
F 7.5277 -7.2179 5.0173
F 21.7310 -7.2179 5.0173
Li 9.5162 -7.5019 5.0173
Li 23.7195 -7.5019 5.0173
F 11.5047 -7.7860 5.0173
F 25.7080 -7.7860 5.0173
Li 13.4931 -8.0701 5.0173
Li 27.6964 -8.0701 5.0173
F 1.2783 -8.3541 5.0173
F 15.4816 -8.3541 5.0173
Li 3.2668 -8.6382 5.0173
Li 17.4701 -8.6382 5.0173
F 5.2552 -8.9223 5.0173
F 19.4585 -8.9223 5.0173
Li 7.2437 -9.2063 5.0173
Li 21.4470 -9.2063 5.0173
F 9.2321 -9.4904 5.0173
F 23.4354 -9.4904 5.0173
Li 11.2206 -9.7745 5.0173
Li 25.4239 -9.7745 5.0173
F 13.2091 -10.0585 5.0173
F 27.4124 -10.0585 5.0173
F 0.4261 -0.1162 7.0259
F 14.6294 -0.1162 7.0259
Li 2.4146 -0.4003 7.0259
Li 16.6179 -0.4003 7.0259
F 4.4030 -0.6843 7.0259
F 18.6063 -0.6843 7.0259
Li 6.3915 -0.9684 7.0259
Li 20.5948 -0.9684 7.0259
F 8.3799 -1.2525 7.0259
F 22.5832 -1.2525 7.0259
Li 10.3684 -1.5365 7.0259
Li 24.5717 -1.5365 7.0259
F 12.3569 -1.8206 7.0259
F 26.5602 -1.8206 7.0259
Li 14.3453 -2.1047 7.0259
Li 0.1420 -2.1047 7.0259
F 2.1305 -2.3887 7.0259
F 16.3338 -2.3887 7.0259
Li 4.1190 -2.6728 7.0259
Li 18.3223 -2.6728 7.0259
F 6.1074 -2.9569 7.0259
F 20.3107 -2.9569 7.0259
Li 8.0959 -3.2409 7.0259
Li 22.2992 -3.2409 7.0259
F 10.0843 -3.5250 7.0259
F 24.2876 -3.5250 7.0259
Li 12.0728 -3.8091 7.0259
Li 26.2761 -3.8091 7.0259
F 14.0613 -4.0931 7.0259
F 28.2646 -4.0931 7.0259
Li 1.8464 -4.3772 7.0259
Li 16.0497 -4.3772 7.0259
F 3.8349 -4.6613 7.0259
F 18.0382 -4.6613 7.0259
Li 5.8234 -4.9453 7.0259
Li 20.0267 -4.9453 7.0259
F 7.8118 -5.2294 7.0259
F 22.0151 -5.2294 7.0259
Li 9.8003 -5.5135 7.0259
Li 24.0036 -5.5135 7.0259
F 11.7887 -5.7975 7.0259
F 25.9920 -5.7975 7.0259
Li 13.7772 -6.0816 7.0259
Li 27.9805 -6.0816 7.0259
F 1.5624 -6.3657 7.0259
F 15.7657 -6.3657 7.0259
Li 3.5508 -6.6497 7.0259
Li 17.7541 -6.6497 7.0259
F 5.5393 -6.9338 7.0259
F 19.7426 -6.9338 7.0259
Li 7.5277 -7.2179 7.0259
Li 21.7310 -7.2179 7.0259
F 9.5162 -7.5019 7.0259
F 23.7195 -7.5019 7.0259
Li 11.5047 -7.7860 7.0259
Li 25.7080 -7.7860 7.0259
F 13.4931 -8.0701 7.0259
F 27.6964 -8.0701 7.0259
Li 1.2783 -8.3541 7.0259
Li 15.4816 -8.3541 7.0259
F 3.2668 -8.6382 7.0259
F 17.4701 -8.6382 7.0259
Li 5.2552 -8.9223 7.0259
Li 19.4585 -8.9223 7.0259
F 7.2437 -9.2063 7.0259
F 21.4470 -9.2063 7.0259
Li 9.2321 -9.4904 7.0259
Li 23.4354 -9.4904 7.0259
F 11.2206 -9.7745 7.0259
F 25.4239 -9.7745 7.0259
Li 13.2091 -10.0585 7.0259
Li 27.4124 -10.0585 7.0259
Li 0.4261 -0.1162 9.0346
Li 14.6294 -0.1162 9.0346
F 2.4146 -0.4003 9.0346
F 16.6179 -0.4003 9.0346
Li 4.4030 -0.6843 9.0346
Li 18.6063 -0.6843 9.0346
F 6.3915 -0.9684 9.0346
F 20.5948 -0.9684 9.0346
Li 8.3799 -1.2525 9.0346
Li 22.5832 -1.2525 9.0346
F 10.3684 -1.5365 9.0346
F 24.5717 -1.5365 9.0346
Li 12.3569 -1.8206 9.0346
Li 26.5602 -1.8206 9.0346
F 14.3453 -2.1047 9.0346
F 0.1420 -2.1047 9.0346
Li 2.1305 -2.3887 9.0346
Li 16.3338 -2.3887 9.0346
F 4.1190 -2.6728 9.0346
F 18.3223 -2.6728 9.0346
Li 6.1074 -2.9569 9.0346
Li 20.3107 -2.9569 9.0346
F 8.0959 -3.2409 9.0346
F 22.2992 -3.2409 9.0346
Li 10.0843 -3.5250 9.0346
Li 24.2876 -3.5250 9.0346
F 12.0728 -3.8091 9.0346
F 26.2761 -3.8091 9.0346
Li 14.0613 -4.0931 9.0346
Li 28.2646 -4.0931 9.0346
F 1.8464 -4.3772 9.0346
F 16.0497 -4.3772 9.0346
Li 3.8349 -4.6613 9.0346
Li 18.0382 -4.6613 9.0346
F 5.8234 -4.9453 9.0346
F 20.0267 -4.9453 9.0346
Li 7.8118 -5.2294 9.0346
Li 22.0151 -5.2294 9.0346
F 9.8003 -5.5135 9.0346
F 24.0036 -5.5135 9.0346
Li 11.7887 -5.7975 9.0346
Li 25.9920 -5.7975 9.0346
F 13.7772 -6.0816 9.0346
F 27.9805 -6.0816 9.0346
Li 1.5624 -6.3657 9.0346
Li 15.7657 -6.3657 9.0346
F 3.5508 -6.6497 9.0346
F 17.7541 -6.6497 9.0346
Li 5.5393 -6.9338 9.0346
Li 19.7426 -6.9338 9.0346
F 7.5277 -7.2179 9.0346
F 21.7310 -7.2179 9.0346
Li 9.5162 -7.5019 9.0346
Li 23.7195 -7.5019 9.0346
F 11.5047 -7.7860 9.0346
F 25.7080 -7.7860 9.0346
Li 13.4931 -8.0701 9.0346
Li 27.6964 -8.0701 9.0346
F 1.2783 -8.3541 9.0346
F 15.4816 -8.3541 9.0346
Li 3.2668 -8.6382 9.0346
Li 17.4701 -8.6382 9.0346
F 5.2552 -8.9223 9.0346
F 19.4585 -8.9223 9.0346
Li 7.2437 -9.2063 9.0346
Li 21.4470 -9.2063 9.0346
F 9.2321 -9.4904 9.0346
F 23.4354 -9.4904 9.0346
Li 11.2206 -9.7745 9.0346
Li 25.4239 -9.7745 9.0346
F 13.2091 -10.0585 9.0346
F 27.4124 -10.0585 9.0346
F 0.4261 -0.1162 11.0432
F 14.6294 -0.1162 11.0432
Li 2.4146 -0.4003 11.0432
Li 16.6179 -0.4003 11.0432
F 4.4030 -0.6843 11.0432
F 18.6063 -0.6843 11.0432
Li 6.3915 -0.9684 11.0432
Li 20.5948 -0.9684 11.0432
F 8.3799 -1.2525 11.0432
F 22.5832 -1.2525 11.0432
Li 10.3684 -1.5365 11.0432
Li 24.5717 -1.5365 11.0432
F 12.3569 -1.8206 11.0432
F 26.5602 -1.8206 11.0432
Li 14.3453 -2.1047 11.0432
Li 0.1420 -2.1047 11.0432
F 2.1305 -2.3887 11.0432
F 16.3338 -2.3887 11.0432
Li 4.1190 -2.6728 11.0432
Li 18.3223 -2.6728 11.0432
F 6.1074 -2.9569 11.0432
F 20.3107 -2.9569 11.0432
Li 8.0959 -3.2409 11.0432
Li 22.2992 -3.2409 11.0432
F 10.0843 -3.5250 11.0432
F 24.2876 -3.5250 11.0432
Li 12.0728 -3.8091 11.0432
Li 26.2761 -3.8091 11.0432
F 14.0613 -4.0931 11.0432
F 28.2646 -4.0931 11.0432
Li 1.8464 -4.3772 11.0432
Li 16.0497 -4.3772 11.0432
F 3.8349 -4.6613 11.0432
F 18.0382 -4.6613 11.0432
Li 5.8234 -4.9453 11.0432
Li 20.0267 -4.9453 11.0432
F 7.8118 -5.2294 11.0432
F 22.0151 -5.2294 11.0432
Li 9.8003 -5.5135 11.0432
Li 24.0036 -5.5135 11.0432
F 11.7887 -5.7975 11.0432
F 25.9920 -5.7975 11.0432
Li 13.7772 -6.0816 11.0432
Li 27.9805 -6.0816 11.0432
F 1.5624 -6.3657 11.0432
F 15.7657 -6.3657 11.0432
Li 3.5508 -6.6497 11.0432
Li 17.7541 -6.6497 11.0432
F 5.5393 -6.9338 11.0432
F 19.7426 -6.9338 11.0432
Li 7.5277 -7.2179 11.0432
Li 21.7310 -7.2179 11.0432
F 9.5162 -7.5019 11.0432
F 23.7195 -7.5019 11.0432
Li 11.5047 -7.7860 11.0432
Li 25.7080 -7.7860 11.0432
F 13.4931 -8.0701 11.0432
F 27.6964 -8.0701 11.0432
Li 1.2783 -8.3541 11.0432
Li 15.4816 -8.3541 11.0432
F 3.2668 -8.6382 11.0432
F 17.4701 -8.6382 11.0432
Li 5.2552 -8.9223 11.0432
Li 19.4585 -8.9223 11.0432
F 7.2437 -9.2063 11.0432
F 21.4470 -9.2063 11.0432
Li 9.2321 -9.4904 11.0432
Li 23.4354 -9.4904 11.0432
F 11.2206 -9.7745 11.0432
F 25.4239 -9.7745 11.0432
Li 13.2091 -10.0585 11.0432
Li 27.4124 -10.0585 11.0432
Li 0.4261 -0.1162 13.0519
Li 14.6294 -0.1162 13.0519
F 2.4146 -0.4003 13.0519
F 16.6179 -0.4003 13.0519
Li 4.4030 -0.6843 13.0519
Li 18.6063 -0.6843 13.0519
F 6.3915 -0.9684 13.0519
F 20.5948 -0.9684 13.0519
Li 8.3799 -1.2525 13.0519
Li 22.5832 -1.2525 13.0519
F 10.3684 -1.5365 13.0519
F 24.5717 -1.5365 13.0519
Li 12.3569 -1.8206 13.0519
Li 26.5602 -1.8206 13.0519
F 14.3453 -2.1047 13.0519
F 0.1420 -2.1047 13.0519
Li 2.1305 -2.3887 13.0519
Li 16.3338 -2.3887 13.0519
F 4.1190 -2.6728 13.0519
F 18.3223 -2.6728 13.0519
Li 6.1074 -2.9569 13.0519
Li 20.3107 -2.9569 13.0519
F 8.0959 -3.2409 13.0519
F 22.2992 -3.2409 13.0519
Li 10.0843 -3.5250 13.0519
Li 24.2876 -3.5250 13.0519
F 12.0728 -3.8091 13.0519
F 26.2761 -3.8091 13.0519
Li 14.0613 -4.0931 13.0519
Li 28.2646 -4.0931 13.0519
F 1.8464 -4.3772 13.0519
F 16.0497 -4.3772 13.0519
Li 3.8349 -4.6613 13.0519
Li 18.0382 -4.6613 13.0519
F 5.8234 -4.9453 13.0519
F 20.0267 -4.9453 13.0519
Li 7.8118 -5.2294 13.0519
Li 22.0151 -5.2294 13.0519
F 9.8003 -5.5135 13.0519
F 24.0036 -5.5135 13.0519
Li 11.7887 -5.7975 13.0519
Li 25.9920 -5.7975 13.0519
F 13.7772 -6.0816 13.0519
F 27.9805 -6.0816 13.0519
Li 1.5624 -6.3657 13.0519
Li 15.7657 -6.3657 13.0519
F 3.5508 -6.6497 13.0519
F 17.7541 -6.6497 13.0519
Li 5.5393 -6.9338 13.0519
Li 19.7426 -6.9338 13.0519
F 7.5277 -7.2179 13.0519
F 21.7310 -7.2179 13.0519
Li 9.5162 -7.5019 13.0519
Li 23.7195 -7.5019 13.0519
F 11.5047 -7.7860 13.0519
F 25.7080 -7.7860 13.0519
Li 13.4931 -8.0701 13.0519
Li 27.6964 -8.0701 13.0519
F 1.2783 -8.3541 13.0519
F 15.4816 -8.3541 13.0519
Li 3.2668 -8.6382 13.0519
Li 17.4701 -8.6382 13.0519
F 5.2552 -8.9223 13.0519
F 19.4585 -8.9223 13.0519
Li 7.2437 -9.2063 13.0519
Li 21.4470 -9.2063 13.0519
F 9.2321 -9.4904 13.0519
F 23.4354 -9.4904 13.0519
Li 11.2206 -9.7745 13.0519
Li 25.4239 -9.7745 13.0519
F 13.2091 -10.0585 13.0519
F 27.4124 -10.0585 13.0519
Li 14.6294 -0.1162 15.1627
Li 12.0599 -0.3486 15.1627
Li 9.4904 -0.5810 15.1627
Li 6.9209 -0.8135 15.1627
Li 4.3514 -1.0459 15.1627
Li 1.7819 -1.2783 15.1627
Li 27.6190 -1.5107 15.1627
Li 25.0495 -1.7431 15.1627
Li 22.4800 -1.9755 15.1627
Li 19.9104 -2.2080 15.1627
Li 17.3409 -2.4404 15.1627
Li 14.7714 -2.6728 15.1627
Li 12.2019 -2.9052 15.1627
Li 9.6324 -3.1376 15.1627
Li 7.0629 -3.3701 15.1627
Li 4.4934 -3.6025 15.1627
Li 1.9239 -3.8349 15.1627
Li 27.7610 -4.0673 15.1627
Li 25.1915 -4.2997 15.1627
Li 22.6220 -4.5321 15.1627
Li 20.0525 -4.7646 15.1627
Li 17.4830 -4.9970 15.1627
Li 14.9135 -5.2294 15.1627
Li 12.3440 -5.4618 15.1627
Li 9.7745 -5.6942 15.1627
Li 7.2049 -5.9266 15.1627
Li 4.6354 -6.1591 15.1627
Li 2.0659 -6.3915 15.1627
Li 27.9030 -6.6239 15.1627
Li 25.3335 -6.8563 15.1627
Li 22.7640 -7.0887 15.1627
Li 20.1945 -7.3212 15.1627
Li 17.6250 -7.5536 15.1627
Li 15.0555 -7.7860 15.1627
Li 12.4860 -8.0184 15.1627
Li 9.9165 -8.2508 15.1627
Li 7.3470 -8.4832 15.1627
Li 4.7775 -8.7157 15.1627
Li 2.2080 -8.9481 15.1627
Li 28.0451 -9.1805 15.1627
Li 25.4756 -9.4129 15.1627
Li 22.9060 -9.6453 15.1627
Li 20.3365 -9.8777 15.1627
Li 17.7670 -10.1102 15.1627
O 26.2632 -0.3486 16.0140
O 21.1242 -0.8135 16.0140
O 15.9852 -1.2783 16.0140
O 10.8462 -1.7431 16.0140
O 5.7071 -2.2080 16.0140
O 0.5681 -2.6728 16.0140
O 23.8357 -3.1376 16.0140
O 18.6967 -3.6025 16.0140
O 13.5577 -4.0673 16.0140
O 8.4187 -4.5321 16.0140
O 3.2797 -4.9970 16.0140
O 26.5473 -5.4618 16.0140
O 21.4082 -5.9266 16.0140
O 16.2692 -6.3915 16.0140
O 11.1302 -6.8563 16.0140
O 5.9912 -7.3212 16.0140
O 0.8522 -7.7860 16.0140
O 24.1198 -8.2508 16.0140
O 18.9808 -8.7157 16.0140
O 13.8418 -9.1805 16.0140
O 8.7027 -9.6453 16.0140
O 3.5637 -10.1102 16.0140
H 26.2632 -0.3486 16.9841
H 21.1242 -0.8135 16.9841
H 15.9852 -1.2783 16.9841
H 10.8462 -1.7431 16.9841
H 5.7071 -2.2080 16.9841
H 0.5681 -2.6728 16.9841
H 23.8357 -3.1376 16.9841
H 18.6967 -3.6025 16.9841
H 13.5577 -4.0673 16.9841
H 8.4187 -4.5321 16.9841
H 3.2797 -4.9970 16.9841
H 26.5473 -5.4618 16.9841
H 21.4082 -5.9266 16.9841
H 16.2692 -6.3915 16.9841
H 11.1302 -6.8563 16.9841
H 5.9912 -7.3212 16.9841
H 0.8522 -7.7860 16.9841
H 24.1198 -8.2508 16.9841
H 18.9808 -8.7157 16.9841
H 13.8418 -9.1805 16.9841
H 8.7027 -9.6453 16.9841
H 3.5637 -10.1102 16.9841
H 0.4261 -0.1162 17.7518
H 23.6937 -0.5810 17.7518
H 18.5547 -1.0459 17.7518
H 13.4157 -1.5107 17.7518
H 8.2767 -1.9755 17.7518
H 3.1376 -2.4404 17.7518
H 26.4052 -2.9052 17.7518
H 21.2662 -3.3701 17.7518
H 16.1272 -3.8349 17.7518
H 10.9882 -4.2997 17.7518
H 5.8492 -4.7646 17.7518
H 0.7102 -5.2294 17.7518
H 23.9778 -5.6942 17.7518
H 18.8387 -6.1591 17.7518
H 13.6997 -6.6239 17.7518
H 8.5607 -7.0887 17.7518
H 3.4217 -7.5536 17.7518
H 26.6893 -8.0184 17.7518
H 21.5503 -8.4832 17.7518
H 16.4113 -8.9481 17.7518
H 11.2723 -9.4129 17.7518
H 6.1332 -9.8777 17.7518
O 0.4261 -0.1162 18.7218
O 23.6937 -0.5810 18.7218
O 18.5547 -1.0459 18.7218
O 13.4157 -1.5107 18.7218
O 8.2767 -1.9755 18.7218
O 3.1376 -2.4404 18.7218
O 26.4052 -2.9052 18.7218
O 21.2662 -3.3701 18.7218
O 16.1272 -3.8349 18.7218
O 10.9882 -4.2997 18.7218
O 5.8492 -4.7646 18.7218
O 0.7102 -5.2294 18.7218
O 23.9778 -5.6942 18.7218
O 18.8387 -6.1591 18.7218
O 13.6997 -6.6239 18.7218
O 8.5607 -7.0887 18.7218
O 3.4217 -7.5536 18.7218
O 26.6893 -8.0184 18.7218
O 21.5503 -8.4832 18.7218
O 16.4113 -8.9481 18.7218
O 11.2723 -9.4129 18.7218
O 6.1332 -9.8777 18.7218
Li 14.6294 -0.1162 19.5732
Li 12.0599 -0.3486 19.5732
Li 9.4904 -0.5810 19.5732
Li 6.9209 -0.8135 19.5732
Li 4.3514 -1.0459 19.5732
Li 1.7819 -1.2783 19.5732
Li 27.6190 -1.5107 19.5732
Li 25.0495 -1.7431 19.5732
Li 22.4800 -1.9755 19.5732
Li 19.9104 -2.2080 19.5732
Li 17.3409 -2.4404 19.5732
Li 14.7714 -2.6728 19.5732
Li 12.2019 -2.9052 19.5732
Li 9.6324 -3.1376 19.5732
Li 7.0629 -3.3701 19.5732
Li 4.4934 -3.6025 19.5732
Li 1.9239 -3.8349 19.5732
Li 27.7610 -4.0673 19.5732
Li 25.1915 -4.2997 19.5732
Li 22.6220 -4.5321 19.5732
Li 20.0525 -4.7646 19.5732
Li 17.4830 -4.9970 19.5732
Li 14.9135 -5.2294 19.5732
Li 12.3440 -5.4618 19.5732
Li 9.7745 -5.6942 19.5732
Li 7.2049 -5.9266 19.5732
Li 4.6354 -6.1591 19.5732
Li 2.0659 -6.3915 19.5732
Li 27.9030 -6.6239 19.5732
Li 25.3335 -6.8563 19.5732
Li 22.7640 -7.0887 19.5732
Li 20.1945 -7.3212 19.5732
Li 17.6250 -7.5536 19.5732
Li 15.0555 -7.7860 19.5732
Li 12.4860 -8.0184 19.5732
Li 9.9165 -8.2508 19.5732
Li 7.3470 -8.4832 19.5732
Li 4.7775 -8.7157 19.5732
Li 2.2080 -8.9481 19.5732
Li 28.0451 -9.1805 19.5732
Li 25.4756 -9.4129 19.5732
Li 22.9060 -9.6453 19.5732
Li 20.3365 -9.8777 19.5732
Li 17.7670 -10.1102 19.5732
O 26.2632 -0.3486 20.4245
O 21.1242 -0.8135 20.4245
O 15.9852 -1.2783 20.4245
O 10.8462 -1.7431 20.4245
O 5.7071 -2.2080 20.4245
O 0.5681 -2.6728 20.4245
O 23.8357 -3.1376 20.4245
O 18.6967 -3.6025 20.4245
O 13.5577 -4.0673 20.4245
O 8.4187 -4.5321 20.4245
O 3.2797 -4.9970 20.4245
O 26.5473 -5.4618 20.4245
O 21.4082 -5.9266 20.4245
O 16.2692 -6.3915 20.4245
O 11.1302 -6.8563 20.4245
O 5.9912 -7.3212 20.4245
O 0.8522 -7.7860 20.4245
O 24.1198 -8.2508 20.4245
O 18.9808 -8.7157 20.4245
O 13.8418 -9.1805 20.4245
O 8.7027 -9.6453 20.4245
O 3.5637 -10.1102 20.4245
H 26.2632 -0.3486 21.3946
H 21.1242 -0.8135 21.3946
H 15.9852 -1.2783 21.3946
H 10.8462 -1.7431 21.3946
H 5.7071 -2.2080 21.3946
H 0.5681 -2.6728 21.3946
H 23.8357 -3.1376 21.3946
H 18.6967 -3.6025 21.3946
H 13.5577 -4.0673 21.3946
H 8.4187 -4.5321 21.3946
H 3.2797 -4.9970 21.3946
H 26.5473 -5.4618 21.3946
H 21.4082 -5.9266 21.3946
H 16.2692 -6.3915 21.3946
H 11.1302 -6.8563 21.3946
H 5.9912 -7.3212 21.3946
H 0.8522 -7.7860 21.3946
H 24.1198 -8.2508 21.3946
H 18.9808 -8.7157 21.3946
H 13.8418 -9.1805 21.3946
H 8.7027 -9.6453 21.3946
H 3.5637 -10.1102 21.3946
H 0.4261 -0.1162 22.1622
H 23.6937 -0.5810 22.1622
H 18.5547 -1.0459 22.1622
H 13.4157 -1.5107 22.1622
H 8.2767 -1.9755 22.1622
H 3.1376 -2.4404 22.1622
H 26.4052 -2.9052 22.1622
H 21.2662 -3.3701 22.1622
H 16.1272 -3.8349 22.1622
H 10.9882 -4.2997 22.1622
H 5.8492 -4.7646 22.1622
H 0.7102 -5.2294 22.1622
H 23.9778 -5.6942 22.1622
H 18.8387 -6.1591 22.1622
H 13.6997 -6.6239 22.1622
H 8.5607 -7.0887 22.1622
H 3.4217 -7.5536 22.1622
H 26.6893 -8.0184 22.1622
H 21.5503 -8.4832 22.1622
H 16.4113 -8.9481 22.1622
H 11.2723 -9.4129 22.1622
H 6.1332 -9.8777 22.1622
O 0.4261 -0.1162 23.1323
O 23.6937 -0.5810 23.1323
O 18.5547 -1.0459 23.1323
O 13.4157 -1.5107 23.1323
O 8.2767 -1.9755 23.1323
O 3.1376 -2.4404 23.1323
O 26.4052 -2.9052 23.1323
O 21.2662 -3.3701 23.1323
O 16.1272 -3.8349 23.1323
O 10.9882 -4.2997 23.1323
O 5.8492 -4.7646 23.1323
O 0.7102 -5.2294 23.1323
O 23.9778 -5.6942 23.1323
O 18.8387 -6.1591 23.1323
O 13.6997 -6.6239 23.1323
O 8.5607 -7.0887 23.1323
O 3.4217 -7.5536 23.1323
O 26.6893 -8.0184 23.1323
O 21.5503 -8.4832 23.1323
O 16.4113 -8.9481 23.1323
O 11.2723 -9.4129 23.1323
O 6.1332 -9.8777 23.1323
Li 14.6294 -0.1162 23.9836
Li 12.0599 -0.3486 23.9836
Li 9.4904 -0.5810 23.9836
Li 6.9209 -0.8135 23.9836
Li 4.3514 -1.0459 23.9836
Li 1.7819 -1.2783 23.9836
Li 27.6190 -1.5107 23.9836
Li 25.0495 -1.7431 23.9836
Li 22.4800 -1.9755 23.9836
Li 19.9104 -2.2080 23.9836
Li 17.3409 -2.4404 23.9836
Li 14.7714 -2.6728 23.9836
Li 12.2019 -2.9052 23.9836
Li 9.6324 -3.1376 23.9836
Li 7.0629 -3.3701 23.9836
Li 4.4934 -3.6025 23.9836
Li 1.9239 -3.8349 23.9836
Li 27.7610 -4.0673 23.9836
Li 25.1915 -4.2997 23.9836
Li 22.6220 -4.5321 23.9836
Li 20.0525 -4.7646 23.9836
Li 17.4830 -4.9970 23.9836
Li 14.9135 -5.2294 23.9836
Li 12.3440 -5.4618 23.9836
Li 9.7745 -5.6942 23.9836
Li 7.2049 -5.9266 23.9836
Li 4.6354 -6.1591 23.9836
Li 2.0659 -6.3915 23.9836
Li 27.9030 -6.6239 23.9836
Li 25.3335 -6.8563 23.9836
Li 22.7640 -7.0887 23.9836
Li 20.1945 -7.3212 23.9836
Li 17.6250 -7.5536 23.9836
Li 15.0555 -7.7860 23.9836
Li 12.4860 -8.0184 23.9836
Li 9.9165 -8.2508 23.9836
Li 7.3470 -8.4832 23.9836
Li 4.7775 -8.7157 23.9836
Li 2.2080 -8.9481 23.9836
Li 28.0451 -9.1805 23.9836
Li 25.4756 -9.4129 23.9836
Li 22.9060 -9.6453 23.9836
Li 20.3365 -9.8777 23.9836
Li 17.7670 -10.1102 23.9836
O 26.2632 -0.3486 24.8349
O 21.1242 -0.8135 24.8349
O 15.9852 -1.2783 24.8349
O 10.8462 -1.7431 24.8349
O 5.7071 -2.2080 24.8349
O 0.5681 -2.6728 24.8349
O 23.8357 -3.1376 24.8349
O 18.6967 -3.6025 24.8349
O 13.5577 -4.0673 24.8349
O 8.4187 -4.5321 24.8349
O 3.2797 -4.9970 24.8349
O 26.5473 -5.4618 24.8349
O 21.4082 -5.9266 24.8349
O 16.2692 -6.3915 24.8349
O 11.1302 -6.8563 24.8349
O 5.9912 -7.3212 24.8349
O 0.8522 -7.7860 24.8349
O 24.1198 -8.2508 24.8349
O 18.9808 -8.7157 24.8349
O 13.8418 -9.1805 24.8349
O 8.7027 -9.6453 24.8349
O 3.5637 -10.1102 24.8349
H 26.2632 -0.3486 25.8050
H 21.1242 -0.8135 25.8050
H 15.9852 -1.2783 25.8050
H 10.8462 -1.7431 25.8050
H 5.7071 -2.2080 25.8050
H 0.5681 -2.6728 25.8050
H 23.8357 -3.1376 25.8050
H 18.6967 -3.6025 25.8050
H 13.5577 -4.0673 25.8050
H 8.4187 -4.5321 25.8050
H 3.2797 -4.9970 25.8050
H 26.5473 -5.4618 25.8050
H 21.4082 -5.9266 25.8050
H 16.2692 -6.3915 25.8050
H 11.1302 -6.8563 25.8050
H 5.9912 -7.3212 25.8050
H 0.8522 -7.7860 25.8050
H 24.1198 -8.2508 25.8050
H 18.9808 -8.7157 25.8050
H 13.8418 -9.1805 25.8050
H 8.7027 -9.6453 25.8050
H 3.5637 -10.1102 25.8050
H 0.4261 -0.1162 26.5727
H 23.6937 -0.5810 26.5727
H 18.5547 -1.0459 26.5727
H 13.4157 -1.5107 26.5727
H 8.2767 -1.9755 26.5727
H 3.1376 -2.4404 26.5727
H 26.4052 -2.9052 26.5727
H 21.2662 -3.3701 26.5727
H 16.1272 -3.8349 26.5727
H 10.9882 -4.2997 26.5727
H 5.8492 -4.7646 26.5727
H 0.7102 -5.2294 26.5727
H 23.9778 -5.6942 26.5727
H 18.8387 -6.1591 26.5727
H 13.6997 -6.6239 26.5727
H 8.5607 -7.0887 26.5727
H 3.4217 -7.5536 26.5727
H 26.6893 -8.0184 26.5727
H 21.5503 -8.4832 26.5727
H 16.4113 -8.9481 26.5727
H 11.2723 -9.4129 26.5727
H 6.1332 -9.8777 26.5727
O 0.4261 -0.1162 27.5428
O 23.6937 -0.5810 27.5428
O 18.5547 -1.0459 27.5428
O 13.4157 -1.5107 27.5428
O 8.2767 -1.9755 27.5428
O 3.1376 -2.4404 27.5428
O 26.4052 -2.9052 27.5428
O 21.2662 -3.3701 27.5428
O 16.1272 -3.8349 27.5428
O 10.9882 -4.2997 27.5428
O 5.8492 -4.7646 27.5428
O 0.7102 -5.2294 27.5428
O 23.9778 -5.6942 27.5428
O 18.8387 -6.1591 27.5428
O 13.6997 -6.6239 27.5428
O 8.5607 -7.0887 27.5428
O 3.4217 -7.5536 27.5428
O 26.6893 -8.0184 27.5428
O 21.5503 -8.4832 27.5428
O 16.4113 -8.9481 27.5428
O 11.2723 -9.4129 27.5428
O 6.1332 -9.8777 27.5428
Li 14.6294 -0.1162 28.3941
Li 12.0599 -0.3486 28.3941
Li 9.4904 -0.5810 28.3941
Li 6.9209 -0.8135 28.3941
Li 4.3514 -1.0459 28.3941
Li 1.7819 -1.2783 28.3941
Li 27.6190 -1.5107 28.3941
Li 25.0495 -1.7431 28.3941
Li 22.4800 -1.9755 28.3941
Li 19.9104 -2.2080 28.3941
Li 17.3409 -2.4404 28.3941
Li 14.7714 -2.6728 28.3941
Li 12.2019 -2.9052 28.3941
Li 9.6324 -3.1376 28.3941
Li 7.0629 -3.3701 28.3941
Li 4.4934 -3.6025 28.3941
Li 1.9239 -3.8349 28.3941
Li 27.7610 -4.0673 28.3941
Li 25.1915 -4.2997 28.3941
Li 22.6220 -4.5321 28.3941
Li 20.0525 -4.7646 28.3941
Li 17.4830 -4.9970 28.3941
Li 14.9135 -5.2294 28.3941
Li 12.3440 -5.4618 28.3941
Li 9.7745 -5.6942 28.3941
Li 7.2049 -5.9266 28.3941
Li 4.6354 -6.1591 28.3941
Li 2.0659 -6.3915 28.3941
Li 27.9030 -6.6239 28.3941
Li 25.3335 -6.8563 28.3941
Li 22.7640 -7.0887 28.3941
Li 20.1945 -7.3212 28.3941
Li 17.6250 -7.5536 28.3941
Li 15.0555 -7.7860 28.3941
Li 12.4860 -8.0184 28.3941
Li 9.9165 -8.2508 28.3941
Li 7.3470 -8.4832 28.3941
Li 4.7775 -8.7157 28.3941
Li 2.2080 -8.9481 28.3941
Li 28.0451 -9.1805 28.3941
Li 25.4756 -9.4129 28.3941
Li 22.9060 -9.6453 28.3941
Li 20.3365 -9.8777 28.3941
Li 17.7670 -10.1102 28.3941
O 26.2632 -0.3486 29.2454
O 21.1242 -0.8135 29.2454
O 15.9852 -1.2783 29.2454
O 10.8462 -1.7431 29.2454
O 5.7071 -2.2080 29.2454
O 0.5681 -2.6728 29.2454
O 23.8357 -3.1376 29.2454
O 18.6967 -3.6025 29.2454
O 13.5577 -4.0673 29.2454
O 8.4187 -4.5321 29.2454
O 3.2797 -4.9970 29.2454
O 26.5473 -5.4618 29.2454
O 21.4082 -5.9266 29.2454
O 16.2692 -6.3915 29.2454
O 11.1302 -6.8563 29.2454
O 5.9912 -7.3212 29.2454
O 0.8522 -7.7860 29.2454
O 24.1198 -8.2508 29.2454
O 18.9808 -8.7157 29.2454
O 13.8418 -9.1805 29.2454
O 8.7027 -9.6453 29.2454
O 3.5637 -10.1102 29.2454
