201
XYZ file generated by QuantumATK for match 32
O 1.0601 6.4553 1.0000
O 5.6725 6.4553 1.0000
Li 9.1318 1.5631 1.0000
Li 2.2132 1.5631 1.0000
Li 4.5194 1.5631 1.0000
Li 6.8256 1.5631 1.0000
O 1.0601 3.1938 1.0000
O 5.6725 3.1938 1.0000
Li 9.1318 4.8245 1.0000
Li 2.2132 4.8245 1.0000
Li 4.5194 4.8245 1.0000
Li 6.8256 4.8245 1.0000
Li 9.1318 6.4553 2.6307
Li 2.2132 6.4553 2.6307
Li 4.5194 6.4553 2.6307
Li 6.8256 6.4553 2.6307
O 3.3663 1.5631 2.6307
O 7.9787 1.5631 2.6307
Li 9.1318 3.1938 2.6307
Li 2.2132 3.1938 2.6307
Li 4.5194 3.1938 2.6307
Li 6.8256 3.1938 2.6307
O 3.3663 4.8245 2.6307
O 7.9787 4.8245 2.6307
O 1.0601 6.4553 4.2615
O 5.6725 6.4553 4.2615
Li 9.1318 1.5631 4.2615
Li 2.2132 1.5631 4.2615
Li 4.5194 1.5631 4.2615
Li 6.8256 1.5631 4.2615
O 1.0601 3.1938 4.2615
O 5.6725 3.1938 4.2615
Li 9.1318 4.8245 4.2615
Li 2.2132 4.8245 4.2615
Li 4.5194 4.8245 4.2615
Li 6.8256 4.8245 4.2615
Li 9.1318 6.4553 5.8922
Li 2.2132 6.4553 5.8922
Li 4.5194 6.4553 5.8922
Li 6.8256 6.4553 5.8922
O 3.3663 1.5631 5.8922
O 7.9787 1.5631 5.8922
Li 9.1318 3.1938 5.8922
Li 2.2132 3.1938 5.8922
Li 4.5194 3.1938 5.8922
Li 6.8256 3.1938 5.8922
O 3.3663 4.8245 5.8922
O 7.9787 4.8245 5.8922
O 1.0601 6.4553 7.5229
O 5.6725 6.4553 7.5229
Li 9.1318 1.5631 7.5229
Li 2.2132 1.5631 7.5229
Li 4.5194 1.5631 7.5229
Li 6.8256 1.5631 7.5229
O 1.0601 3.1938 7.5229
O 5.6725 3.1938 7.5229
Li 9.1318 4.8245 7.5229
Li 2.2132 4.8245 7.5229
Li 4.5194 4.8245 7.5229
Li 6.8256 4.8245 7.5229
Li 9.1318 6.4553 9.1537
Li 2.2132 6.4553 9.1537
Li 4.5194 6.4553 9.1537
Li 6.8256 6.4553 9.1537
O 3.3663 1.5631 9.1537
O 7.9787 1.5631 9.1537
Li 9.1318 3.1938 9.1537
Li 2.2132 3.1938 9.1537
Li 4.5194 3.1938 9.1537
Li 6.8256 3.1938 9.1537
O 3.3663 4.8245 9.1537
O 7.9787 4.8245 9.1537
O 1.0601 6.4553 10.7844
O 5.6725 6.4553 10.7844
Li 9.1318 1.5631 10.7844
Li 2.2132 1.5631 10.7844
Li 4.5194 1.5631 10.7844
Li 6.8256 1.5631 10.7844
O 1.0601 3.1938 10.7844
O 5.6725 3.1938 10.7844
Li 9.1318 4.8245 10.7844
Li 2.2132 4.8245 10.7844
Li 4.5194 4.8245 10.7844
Li 6.8256 4.8245 10.7844
Li 9.1318 6.4553 12.4151
Li 2.2132 6.4553 12.4151
Li 4.5194 6.4553 12.4151
Li 6.8256 6.4553 12.4151
O 3.3663 1.5631 12.4151
O 7.9787 1.5631 12.4151
Li 9.1318 3.1938 12.4151
Li 2.2132 3.1938 12.4151
Li 4.5194 3.1938 12.4151
Li 6.8256 3.1938 12.4151
O 3.3663 4.8245 12.4151
O 7.9787 4.8245 12.4151
O 1.0601 6.4553 14.0459
O 5.6725 6.4553 14.0459
Li 9.1318 1.5631 14.0459
Li 2.2132 1.5631 14.0459
Li 4.5194 1.5631 14.0459
Li 6.8256 1.5631 14.0459
O 1.0601 3.1938 14.0459
O 5.6725 3.1938 14.0459
Li 9.1318 4.8245 14.0459
Li 2.2132 4.8245 14.0459
Li 4.5194 4.8245 14.0459
Li 6.8256 4.8245 14.0459
Li 7.2128 0.4799 15.9902
Li 4.1378 2.6542 15.9902
Li 1.0629 4.8285 15.9902
H 2.7613 0.7074 16.2325
H 8.9112 2.8818 16.2325
H 5.8362 5.0561 16.2325
O 6.0322 2.0718 16.5277
O 2.9573 4.2461 16.5277
O 9.1071 6.4204 16.5277
O 3.1680 1.2826 16.8450
O 0.0930 3.4569 16.8450
O 6.2429 5.6312 16.8450
H 0.2890 0.4726 17.1402
H 6.4389 2.6469 17.1402
H 3.3639 4.8212 17.1402
Li 5.0623 0.7001 17.3826
Li 1.9874 2.8745 17.3826
Li 8.1373 5.0488 17.3826
Li 2.9119 0.9204 18.7750
Li 9.0617 3.0947 18.7750
Li 5.9868 5.2690 18.7750
H 7.6852 1.1480 19.0174
H 4.6102 3.3223 19.0174
H 1.5353 5.4966 19.0174
O 4.8062 0.3380 19.3126
O 1.7313 2.5123 19.3126
O 7.8812 4.6866 19.3126
O 8.0919 1.7231 19.6299
O 5.0169 3.8974 19.6299
O 1.9420 6.0717 19.6299
H 5.2129 0.9131 19.9251
H 2.1380 3.0874 19.9251
H 8.2879 5.2617 19.9251
Li 0.7614 1.1407 20.1675
Li 6.9113 3.3150 20.1675
Li 3.8364 5.4893 20.1675
Li 7.8358 1.3609 21.5599
Li 4.7608 3.5352 21.5599
Li 1.6859 5.7096 21.5599
H 3.3843 1.5885 21.8023
H 0.3093 3.7628 21.8023
H 6.4592 5.9371 21.8023
O 0.5053 0.7785 22.0974
O 6.6552 2.9528 22.0974
O 3.5803 5.1271 22.0974
O 3.7910 2.1636 22.4148
O 0.7160 4.3379 22.4148
O 6.8659 6.5123 22.4148
H 0.9120 1.3536 22.7100
H 7.0619 3.5280 22.7100
H 3.9869 5.7023 22.7100
Li 5.6853 1.5812 22.9523
Li 2.6104 3.7555 22.9523
Li 8.7603 5.9298 22.9523
Li 3.5349 1.8015 24.3448
Li 0.4599 3.9758 24.3448
Li 6.6098 6.1501 24.3448
H 8.3082 2.0290 24.5871
H 5.2332 4.2033 24.5871
H 2.1583 6.3776 24.5871
O 5.4292 1.2190 24.8823
O 2.3543 3.3933 24.8823
O 8.5042 5.5677 24.8823
O 2.5650 0.4299 25.1997
O 8.7149 2.6042 25.1997
O 5.6399 4.7785 25.1997
H 5.8359 1.7942 25.4949
H 2.7610 3.9685 25.4949
H 8.9109 6.1428 25.4949
Li 1.3844 2.0217 25.7372
Li 7.5343 4.1960 25.7372
Li 4.4594 6.3704 25.7372
Li 8.4588 2.2420 27.1297
Li 5.3838 4.4163 27.1297
Li 2.3089 0.0677 27.1297
H 7.0822 0.2952 27.3720
H 4.0073 2.4696 27.3720
H 0.9323 4.6439 27.3720
O 1.1283 1.6596 27.6672
O 7.2782 3.8339 27.6672
O 4.2033 6.0082 27.6672
O 7.4889 0.8704 27.9846
O 4.4140 3.0447 27.9846
O 1.3390 5.2190 27.9846
H 1.5350 2.2347 28.2797
H 7.6849 4.4090 28.2797
H 4.6099 0.0604 28.2797
Li 0.1584 0.2879 28.5221
Li 6.3083 2.4623 28.5221
Li 3.2334 4.6366 28.5221
Li 7.2328 0.5082 29.9145
Li 4.1579 2.6825 29.9145
Li 1.0829 4.8568 29.9145
