846
XYZ file generated by QuantumATK for match 1
Li 4.9902 -0.0337 1.0000
Li 8.0273 -1.0548 1.0000
Li 18.5576 -1.5038 1.0000
Li 0.0465 -2.5249 1.0000
Li 10.5768 -2.9740 1.0000
Li 13.6138 -3.9951 1.0000
Li 2.5960 -4.4441 1.0000
Li 5.6330 -5.4652 1.0000
Li 16.1633 -5.9143 1.0000
Li -2.3478 -6.9354 1.0000
Li 8.1825 -7.3844 1.0000
Li 11.2196 -8.4055 1.0000
Li 0.2017 -8.8546 1.0000
Li 3.2388 -9.8757 1.0000
Li 13.7691 -10.3247 1.0000
Li -4.7420 -11.3458 1.0000
Li 5.7883 -11.7949 1.0000
Li 8.8253 -12.8160 1.0000
O 0.9437 -0.8180 1.3990
O 14.5111 -2.2881 1.3990
O 6.5303 -3.7583 1.3990
O -1.4505 -5.2284 1.3990
O 12.1169 -6.6986 1.3990
O 4.1361 -8.1687 1.3990
O -3.8447 -9.6389 1.3990
O 9.7226 -11.1090 1.3990
O 1.7418 -12.5792 1.3990
O 12.0281 -0.2464 1.3990
O 4.0473 -1.7166 1.3990
O 17.6147 -3.1867 1.3990
O 9.6338 -4.6569 1.3990
O 1.6530 -6.1270 1.3990
O 15.2204 -7.5972 1.3990
O 7.2396 -9.0674 1.3990
O -0.7412 -10.5375 1.3990
O 12.8262 -12.0077 1.3990
C 1.1696 -0.2006 2.5264
O 19.0030 -0.4280 2.5264
O 15.3471 -0.5469 2.5264
C 11.6323 -0.7743 2.5264
C 14.7370 -1.6708 2.5264
O 11.0222 -1.8982 2.5264
O 7.3663 -2.0171 2.5264
C 3.6515 -2.2445 2.5264
C 6.7562 -3.1409 2.5264
O 3.0414 -3.3683 2.5264
O -0.6145 -3.4872 2.5264
C 17.2188 -3.7146 2.5264
C -1.2246 -4.6111 2.5264
O 16.6087 -4.8385 2.5264
O 12.9528 -4.9574 2.5264
C 9.2380 -5.1848 2.5264
C 12.3427 -6.0812 2.5264
O 8.6279 -6.3086 2.5264
O 4.9720 -6.4275 2.5264
C 1.2572 -6.6549 2.5264
C 4.3619 -7.5514 2.5264
O 0.6471 -7.7788 2.5264
O -3.0088 -7.8977 2.5264
C 14.8246 -8.1251 2.5264
C -3.6189 -9.0216 2.5264
O 14.2145 -9.2489 2.5264
O 10.5586 -9.3678 2.5264
C 6.8438 -9.5952 2.5264
C 9.9485 -10.4917 2.5264
O 6.2337 -10.7191 2.5264
O 2.5778 -10.8380 2.5264
C -1.1370 -11.0654 2.5264
C 1.9677 -11.9619 2.5264
O -1.7471 -12.1893 2.5264
O -5.4030 -12.3082 2.5264
C 12.4304 -12.5356 2.5264
O 11.8581 -0.1570 3.6539
O 3.8773 -1.6271 3.6539
O 17.4447 -3.0973 3.6539
O 9.4639 -4.5674 3.6539
O 1.4831 -6.0376 3.6539
O 15.0505 -7.5078 3.6539
O 7.0697 -8.9779 3.6539
O -0.9111 -10.4481 3.6539
O 12.6562 -11.9182 3.6539
O 0.7738 -0.7285 3.6539
O 14.3412 -2.1987 3.6539
O 6.3604 -3.6688 3.6539
O -1.6204 -5.1390 3.6539
O 11.9469 -6.6091 3.6539
O 3.9661 -8.0793 3.6539
O -4.0147 -9.5494 3.6539
O 9.5527 -11.0196 3.6539
O 1.5719 -12.4898 3.6539
Li 7.8117 -0.9413 4.0529
Li 18.3420 -1.3903 4.0529
Li -0.1691 -2.4114 4.0529
Li 10.3612 -2.8605 4.0529
Li 13.3982 -3.8816 4.0529
Li 2.3804 -4.3306 4.0529
Li 5.4174 -5.3518 4.0529
Li 15.9477 -5.8008 4.0529
Li -2.5634 -6.8219 4.0529
Li 7.9669 -7.2709 4.0529
Li 11.0040 -8.2921 4.0529
Li -0.0139 -8.7411 4.0529
Li 3.0232 -9.7622 4.0529
Li 13.5535 -10.2113 4.0529
Li -4.9576 -11.2324 4.0529
Li 5.5727 -11.6814 4.0529
Li 8.6097 -12.7025 4.0529
Li -2.4081 -13.1516 4.0529
Li 13.2903 -0.9895 4.8381
Li 2.2725 -1.4385 4.8381
Li 5.3095 -2.4597 4.8381
Li 15.8398 -2.9087 4.8381
Li 18.8769 -3.9298 4.8381
Li 7.8590 -4.3789 4.8381
Li 10.8961 -5.4000 4.8381
Li -0.1218 -5.8490 4.8381
Li 2.9153 -6.8701 4.8381
Li 13.4456 -7.3192 4.8381
Li 16.4826 -8.3403 4.8381
Li 5.4648 -8.7893 4.8381
Li 8.5018 -9.8104 4.8381
Li -2.5160 -10.2595 4.8381
Li 0.5210 -11.2806 4.8381
Li 11.0514 -11.7296 4.8381
Li 14.0884 -12.7507 4.8381
Li 3.0705 -13.1998 4.8381
O 6.2068 -0.7527 5.2371
O 19.7742 -2.2229 5.2371
O 11.7934 -3.6930 5.2371
O 3.8126 -5.1632 5.2371
O 17.3799 -6.6333 5.2371
O 9.3991 -8.1035 5.2371
O 1.4183 -9.5736 5.2371
O 14.9857 -11.0438 5.2371
O 7.0049 -12.5139 5.2371
O 17.2911 -0.1812 5.2371
O 9.3103 -1.6513 5.2371
O 1.3295 -3.1215 5.2371
O 14.8969 -4.5916 5.2371
O 6.9161 -6.0618 5.2371
O -1.0647 -7.5319 5.2371
O 12.5027 -9.0021 5.2371
O 4.5218 -10.4723 5.2371
O -3.4590 -11.9424 5.2371
C 6.4327 -0.1354 6.3645
O 2.7179 -0.3628 6.3645
O 20.6101 -0.4817 6.3645
C 16.8953 -0.7091 6.3645
C 20.0000 -1.6055 6.3645
O 16.2852 -1.8329 6.3645
O 12.6293 -1.9518 6.3645
C 8.9145 -2.1792 6.3645
C 12.0192 -3.0757 6.3645
O 8.3044 -3.3031 6.3645
O 4.6485 -3.4220 6.3645
C 0.9337 -3.6494 6.3645
C 4.0384 -4.5458 6.3645
O 0.3236 -4.7732 6.3645
O 18.2159 -4.8921 6.3645
C 14.5011 -5.1195 6.3645
C 17.6058 -6.0160 6.3645
O 13.8910 -6.2434 6.3645
O 10.2351 -6.3623 6.3645
C 6.5203 -6.5897 6.3645
C 9.6250 -7.4861 6.3645
O 5.9102 -7.7135 6.3645
O 2.2543 -7.8324 6.3645
C -1.4605 -8.0598 6.3645
C 1.6442 -8.9563 6.3645
O -2.0706 -9.1837 6.3645
O 15.8216 -9.3026 6.3645
C 12.1068 -9.5300 6.3645
C 15.2116 -10.4265 6.3645
O 11.4967 -10.6538 6.3645
O 7.8408 -10.7727 6.3645
C 4.1260 -11.0001 6.3645
C 7.2307 -11.8966 6.3645
O 3.5159 -12.1240 6.3645
O -0.1400 -12.2429 6.3645
C -3.8548 -12.4703 6.3645
O 17.1212 -0.0917 7.4920
O 9.1404 -1.5619 7.4920
O 1.1596 -3.0320 7.4920
O 14.7270 -4.5022 7.4920
O 6.7461 -5.9723 7.4920
O -1.2347 -7.4425 7.4920
O 12.3327 -8.9127 7.4920
O 4.3519 -10.3828 7.4920
O -3.6289 -11.8530 7.4920
O 6.0368 -0.6633 7.4920
O 19.6042 -2.1334 7.4920
O 11.6234 -3.6036 7.4920
O 3.6426 -5.0737 7.4920
O 17.2100 -6.5439 7.4920
O 9.2292 -8.0140 7.4920
O 1.2484 -9.4842 7.4920
O 14.8157 -10.9543 7.4920
O 6.8349 -12.4245 7.4920
Li 13.0747 -0.8760 7.8910
Li 2.0569 -1.3251 7.8910
Li 5.0939 -2.3462 7.8910
Li 15.6242 -2.7952 7.8910
Li 18.6613 -3.8163 7.8910
Li 7.6434 -4.2654 7.8910
Li 10.6805 -5.2865 7.8910
Li -0.3374 -5.7355 7.8910
Li 2.6997 -6.7566 7.8910
Li 13.2300 -7.2057 7.8910
Li 16.2670 -8.2268 7.8910
Li 5.2492 -8.6758 7.8910
Li 8.2862 -9.6970 7.8910
Li -2.7316 -10.1460 7.8910
Li 0.3054 -11.1671 7.8910
Li 10.8357 -11.6162 7.8910
Li 13.8728 -12.6373 7.8910
Li 2.8549 -13.0863 7.8910
Li 18.5534 -0.9242 8.6762
Li 7.5355 -1.3733 8.6762
Li 10.5726 -2.3944 8.6762
Li -0.4453 -2.8434 8.6762
Li 2.5918 -3.8646 8.6762
Li 13.1221 -4.3136 8.6762
Li 16.1591 -5.3347 8.6762
Li 5.1413 -5.7838 8.6762
Li 8.1783 -6.8049 8.6762
Li -2.8395 -7.2539 8.6762
Li 0.1975 -8.2750 8.6762
Li 10.7278 -8.7241 8.6762
Li 13.7649 -9.7452 8.6762
Li 2.7470 -10.1942 8.6762
Li 5.7841 -11.2153 8.6762
Li -5.2338 -11.6644 8.6762
Li -2.1967 -12.6855 8.6762
Li 8.3336 -13.1345 8.6762
O 11.4698 -0.6874 9.0752
O 3.4890 -2.1576 9.0752
O 17.0564 -3.6278 9.0752
O 9.0756 -5.0979 9.0752
O 1.0948 -6.5681 9.0752
O 14.6622 -8.0382 9.0752
O 6.6814 -9.5084 9.0752
O -1.2994 -10.9785 9.0752
O 12.2679 -12.4487 9.0752
O 1.0060 -0.1159 9.0752
O 14.5734 -1.5861 9.0752
O 6.5926 -3.0562 9.0752
O -1.3882 -4.5264 9.0752
O 12.1791 -5.9965 9.0752
O 4.1983 -7.4667 9.0752
O -3.7825 -8.9368 9.0752
O 9.7849 -10.4070 9.0752
O 1.8041 -11.8771 9.0752
C 11.6957 -0.0701 10.2027
O 7.9809 -0.2975 10.2027
O 4.3250 -0.4164 10.2027
C 0.6102 -0.6438 10.2027
C 3.7149 -1.5403 10.2027
O 0.0001 -1.7677 10.2027
O 17.8924 -1.8866 10.2027
C 14.1776 -2.1140 10.2027
C 17.2823 -3.0104 10.2027
O 13.5675 -3.2378 10.2027
O 9.9116 -3.3567 10.2027
C 6.1968 -3.5841 10.2027
C 9.3015 -4.4806 10.2027
O 5.5867 -4.7080 10.2027
O 1.9308 -4.8269 10.2027
C -1.7840 -5.0543 10.2027
C 1.3207 -5.9507 10.2027
O -2.3941 -6.1781 10.2027
O 15.4981 -6.2970 10.2027
C 11.7833 -6.5244 10.2027
C 14.8880 -7.4209 10.2027
O 11.1732 -7.6483 10.2027
O 7.5173 -7.7672 10.2027
C 3.8025 -7.9946 10.2027
C 6.9072 -8.8910 10.2027
O 3.1924 -9.1184 10.2027
O -0.4635 -9.2373 10.2027
C -4.1783 -9.4647 10.2027
C -1.0736 -10.3612 10.2027
O -4.7884 -10.5886 10.2027
O 13.1039 -10.7075 10.2027
C 9.3891 -10.9349 10.2027
C 12.4938 -11.8313 10.2027
O 8.7790 -12.0587 10.2027
O 5.1231 -12.1776 10.2027
C 1.4083 -12.4050 10.2027
O 0.8361 -0.0265 11.3301
O 14.4034 -1.4966 11.3301
O 6.4226 -2.9668 11.3301
O -1.5582 -4.4369 11.3301
O 12.0092 -5.9071 11.3301
O 4.0284 -7.3772 11.3301
O -3.9524 -8.8474 11.3301
O 9.6150 -10.3175 11.3301
O 1.6342 -11.7877 11.3301
O 11.2999 -0.5980 11.3301
O 3.3191 -2.0682 11.3301
O 16.8865 -3.5383 11.3301
O 8.9057 -5.0085 11.3301
O 0.9249 -6.4786 11.3301
O 14.4922 -7.9488 11.3301
O 6.5114 -9.4189 11.3301
O -1.4694 -10.8891 11.3301
O 12.0980 -12.3592 11.3301
Li 18.3378 -0.8108 11.7291
Li 7.3199 -1.2598 11.7291
Li 10.3570 -2.2809 11.7291
Li -0.6609 -2.7300 11.7291
Li 2.3762 -3.7511 11.7291
Li 12.9065 -4.2001 11.7291
Li 15.9435 -5.2212 11.7291
Li 4.9257 -5.6703 11.7291
Li 7.9627 -6.6914 11.7291
Li -3.0551 -7.1404 11.7291
Li -0.0181 -8.1615 11.7291
Li 10.5122 -8.6106 11.7291
Li 13.5493 -9.6317 11.7291
Li 2.5314 -10.0807 11.7291
Li 5.5685 -11.1019 11.7291
Li -5.4494 -11.5509 11.7291
Li -2.4123 -12.5720 11.7291
Li 8.1180 -13.0211 11.7291
Li 2.2682 -0.8590 12.5143
Li 12.7986 -1.3080 12.5143
Li 15.8356 -2.3291 12.5143
Li 4.8178 -2.7782 12.5143
Li 7.8548 -3.7993 12.5143
Li 18.3851 -4.2483 12.5143
Li -0.1260 -5.2695 12.5143
Li 10.4043 -5.7185 12.5143
Li 13.4414 -6.7396 12.5143
Li 2.4235 -7.1886 12.5143
Li 5.4606 -8.2098 12.5143
Li 15.9909 -8.6588 12.5143
Li -2.5202 -9.6799 12.5143
Li 8.0101 -10.1290 12.5143
Li 11.0471 -11.1501 12.5143
Li 0.0293 -11.5991 12.5143
Li 3.0663 -12.6202 12.5143
Li 13.5967 -13.0693 12.5143
O 16.7329 -0.6222 12.9133
O 8.7521 -2.0923 12.9133
O 0.7713 -3.5625 12.9133
O 14.3387 -5.0326 12.9133
O 6.3578 -6.5028 12.9133
O -1.6230 -7.9730 12.9133
O 11.9444 -9.4431 12.9133
O 3.9636 -10.9133 12.9133
O -4.0172 -12.3834 12.9133
O 6.2691 -0.0506 12.9133
O 19.8364 -1.5208 12.9133
O 11.8556 -2.9910 12.9133
O 3.8748 -4.4611 12.9133
O 17.4422 -5.9313 12.9133
O 9.4614 -7.4014 12.9133
O 1.4806 -8.8716 12.9133
O 15.0480 -10.3417 12.9133
O 7.0671 -11.8119 12.9133
C 16.9588 -0.0048 14.0408
O 13.2440 -0.2322 14.0408
O 9.5881 -0.3511 14.0408
C 5.8733 -0.5785 14.0408
C 8.9780 -1.4750 14.0408
O 5.2632 -1.7024 14.0408
O 1.6073 -1.8213 14.0408
C 19.4406 -2.0487 14.0408
C 0.9972 -2.9452 14.0408
O 18.8305 -3.1726 14.0408
O 15.1746 -3.2915 14.0408
C 11.4598 -3.5188 14.0408
C 14.5645 -4.4153 14.0408
O 10.8497 -4.6427 14.0408
O 7.1938 -4.7616 14.0408
C 3.4790 -4.9890 14.0408
C 6.5837 -5.8855 14.0408
O 2.8689 -6.1129 14.0408
O -0.7870 -6.2318 14.0408
C 17.0464 -6.4592 14.0408
C -1.3971 -7.3556 14.0408
O 16.4363 -7.5830 14.0408
O 12.7804 -7.7019 14.0408
C 9.0656 -7.9293 14.0408
C 12.1703 -8.8258 14.0408
O 8.4555 -9.0532 14.0408
O 4.7996 -9.1721 14.0408
C 1.0848 -9.3995 14.0408
C 4.1895 -10.2959 14.0408
O 0.4747 -10.5233 14.0408
O -3.1812 -10.6422 14.0408
C 14.6521 -10.8696 14.0408
C -3.7913 -11.7661 14.0408
O 14.0420 -11.9935 14.0408
O 10.3861 -12.1124 14.0408
C 6.6713 -12.3398 14.0408
O 19.6665 -1.4314 15.1682
O 11.6857 -2.9015 15.1682
O 3.7049 -4.3717 15.1682
O 17.2723 -5.8418 15.1682
O 9.2914 -7.3120 15.1682
O 1.3106 -8.7821 15.1682
O 14.8780 -10.2523 15.1682
O 6.8972 -11.7224 15.1682
O -1.0836 -13.1926 15.1682
O 16.5630 -0.5327 15.1682
O 8.5821 -2.0029 15.1682
O 0.6013 -3.4730 15.1682
O 14.1687 -4.9432 15.1682
O 6.1879 -6.4134 15.1682
O -1.7929 -7.8835 15.1682
O 11.7745 -9.3537 15.1682
O 3.7937 -10.8238 15.1682
O -4.1871 -12.2940 15.1682
Li 20.6905 -0.8829 16.7803
Li 2.7337 -0.8829 16.7803
Li 6.3251 -0.8829 16.7803
Li 9.9165 -0.8829 16.7803
Li 13.5078 -0.8829 16.7803
Li 17.0992 -0.8829 16.7803
O 0.9380 -1.7342 16.7803
O 4.5294 -1.7342 16.7803
O 8.1208 -1.7342 16.7803
O 11.7121 -1.7342 16.7803
O 15.3035 -1.7342 16.7803
O 18.8949 -1.7342 16.7803
H 0.9380 -2.7043 16.7803
H 4.5294 -2.7043 16.7803
H 8.1208 -2.7043 16.7803
H 11.7121 -2.7043 16.7803
H 15.3035 -2.7043 16.7803
H 18.8949 -2.7043 16.7803
Li -0.8576 -5.2934 16.7803
Li 2.7337 -5.2934 16.7803
Li 6.3251 -5.2934 16.7803
Li 9.9165 -5.2934 16.7803
Li 13.5078 -5.2934 16.7803
Li 17.0992 -5.2934 16.7803
O -2.6533 -6.1447 16.7803
O 0.9380 -6.1447 16.7803
O 4.5294 -6.1447 16.7803
O 8.1208 -6.1447 16.7803
O 11.7121 -6.1447 16.7803
O 15.3035 -6.1447 16.7803
H -2.6533 -7.1148 16.7803
H 0.9380 -7.1148 16.7803
H 4.5294 -7.1148 16.7803
H 8.1208 -7.1148 16.7803
H 11.7121 -7.1148 16.7803
H 15.3035 -7.1148 16.7803
Li -4.4490 -9.7039 16.7803
Li -0.8576 -9.7039 16.7803
Li 2.7337 -9.7039 16.7803
Li 6.3251 -9.7039 16.7803
Li 9.9165 -9.7039 16.7803
Li 13.5078 -9.7039 16.7803
O 15.3035 -10.5552 16.7803
O -2.6533 -10.5552 16.7803
O 0.9380 -10.5552 16.7803
O 4.5294 -10.5552 16.7803
O 8.1208 -10.5552 16.7803
O 11.7121 -10.5552 16.7803
H -6.2447 -11.5253 16.7803
H -2.6533 -11.5253 16.7803
H 0.9380 -11.5253 16.7803
H 4.5294 -11.5253 16.7803
H 8.1208 -11.5253 16.7803
H 11.7121 -11.5253 16.7803
O 20.6905 -0.0316 18.5760
O 2.7337 -0.0316 18.5760
O 6.3251 -0.0316 18.5760
O 9.9165 -0.0316 18.5760
O 13.5078 -0.0316 18.5760
O 17.0992 -0.0316 18.5760
Li 0.9380 -0.8829 18.5760
Li 4.5294 -0.8829 18.5760
Li 8.1208 -0.8829 18.5760
Li 11.7121 -0.8829 18.5760
Li 15.3035 -0.8829 18.5760
Li 18.8949 -0.8829 18.5760
H -0.8576 -3.4720 18.5760
H 2.7337 -3.4720 18.5760
H 6.3251 -3.4720 18.5760
H 9.9165 -3.4720 18.5760
H 13.5078 -3.4720 18.5760
H 17.0992 -3.4720 18.5760
O -0.8576 -4.4421 18.5760
O 2.7337 -4.4421 18.5760
O 6.3251 -4.4421 18.5760
O 9.9165 -4.4421 18.5760
O 13.5078 -4.4421 18.5760
O 17.0992 -4.4421 18.5760
Li -2.6533 -5.2934 18.5760
Li 0.9380 -5.2934 18.5760
Li 4.5294 -5.2934 18.5760
Li 8.1208 -5.2934 18.5760
Li 11.7121 -5.2934 18.5760
Li 15.3035 -5.2934 18.5760
H 17.0992 -7.8824 18.5760
H -0.8576 -7.8824 18.5760
H 2.7337 -7.8824 18.5760
H 6.3251 -7.8824 18.5760
H 9.9165 -7.8824 18.5760
H 13.5078 -7.8824 18.5760
O -4.4490 -8.8525 18.5760
O -0.8576 -8.8525 18.5760
O 2.7337 -8.8525 18.5760
O 6.3251 -8.8525 18.5760
O 9.9165 -8.8525 18.5760
O 13.5078 -8.8525 18.5760
Li -2.6533 -9.7039 18.5760
Li 0.9380 -9.7039 18.5760
Li 4.5294 -9.7039 18.5760
Li 8.1208 -9.7039 18.5760
Li 11.7121 -9.7039 18.5760
Li 15.3035 -9.7039 18.5760
H -4.4490 -12.2929 18.5760
H -0.8576 -12.2929 18.5760
H 2.7337 -12.2929 18.5760
H 6.3251 -12.2929 18.5760
H 9.9165 -12.2929 18.5760
H 13.5078 -12.2929 18.5760
Li 20.6905 -0.8829 20.3717
Li 2.7337 -0.8829 20.3717
Li 6.3251 -0.8829 20.3717
Li 9.9165 -0.8829 20.3717
Li 13.5078 -0.8829 20.3717
Li 17.0992 -0.8829 20.3717
O 0.9380 -1.7342 20.3717
O 4.5294 -1.7342 20.3717
O 8.1208 -1.7342 20.3717
O 11.7121 -1.7342 20.3717
O 15.3035 -1.7342 20.3717
O 18.8949 -1.7342 20.3717
H 0.9380 -2.7043 20.3717
H 4.5294 -2.7043 20.3717
H 8.1208 -2.7043 20.3717
H 11.7121 -2.7043 20.3717
H 15.3035 -2.7043 20.3717
H 18.8949 -2.7043 20.3717
Li -0.8576 -5.2934 20.3717
Li 2.7337 -5.2934 20.3717
Li 6.3251 -5.2934 20.3717
Li 9.9165 -5.2934 20.3717
Li 13.5078 -5.2934 20.3717
Li 17.0992 -5.2934 20.3717
O -2.6533 -6.1447 20.3717
O 0.9380 -6.1447 20.3717
O 4.5294 -6.1447 20.3717
O 8.1208 -6.1447 20.3717
O 11.7121 -6.1447 20.3717
O 15.3035 -6.1447 20.3717
H -2.6533 -7.1148 20.3717
H 0.9380 -7.1148 20.3717
H 4.5294 -7.1148 20.3717
H 8.1208 -7.1148 20.3717
H 11.7121 -7.1148 20.3717
H 15.3035 -7.1148 20.3717
Li -4.4490 -9.7039 20.3717
Li -0.8576 -9.7039 20.3717
Li 2.7337 -9.7039 20.3717
Li 6.3251 -9.7039 20.3717
Li 9.9165 -9.7039 20.3717
Li 13.5078 -9.7039 20.3717
O 15.3035 -10.5552 20.3717
O -2.6533 -10.5552 20.3717
O 0.9380 -10.5552 20.3717
O 4.5294 -10.5552 20.3717
O 8.1208 -10.5552 20.3717
O 11.7121 -10.5552 20.3717
H -6.2447 -11.5253 20.3717
H -2.6533 -11.5253 20.3717
H 0.9380 -11.5253 20.3717
H 4.5294 -11.5253 20.3717
H 8.1208 -11.5253 20.3717
H 11.7121 -11.5253 20.3717
O 20.6905 -0.0316 22.1674
O 2.7337 -0.0316 22.1674
O 6.3251 -0.0316 22.1674
O 9.9165 -0.0316 22.1674
O 13.5078 -0.0316 22.1674
O 17.0992 -0.0316 22.1674
Li 0.9380 -0.8829 22.1674
Li 4.5294 -0.8829 22.1674
Li 8.1208 -0.8829 22.1674
Li 11.7121 -0.8829 22.1674
Li 15.3035 -0.8829 22.1674
Li 18.8949 -0.8829 22.1674
H -0.8576 -3.4720 22.1674
H 2.7337 -3.4720 22.1674
H 6.3251 -3.4720 22.1674
H 9.9165 -3.4720 22.1674
H 13.5078 -3.4720 22.1674
H 17.0992 -3.4720 22.1674
O -0.8576 -4.4421 22.1674
O 2.7337 -4.4421 22.1674
O 6.3251 -4.4421 22.1674
O 9.9165 -4.4421 22.1674
O 13.5078 -4.4421 22.1674
O 17.0992 -4.4421 22.1674
Li -2.6533 -5.2934 22.1674
Li 0.9380 -5.2934 22.1674
Li 4.5294 -5.2934 22.1674
Li 8.1208 -5.2934 22.1674
Li 11.7121 -5.2934 22.1674
Li 15.3035 -5.2934 22.1674
H 17.0992 -7.8824 22.1674
H -0.8576 -7.8824 22.1674
H 2.7337 -7.8824 22.1674
H 6.3251 -7.8824 22.1674
H 9.9165 -7.8824 22.1674
H 13.5078 -7.8824 22.1674
O -4.4490 -8.8525 22.1674
O -0.8576 -8.8525 22.1674
O 2.7337 -8.8525 22.1674
O 6.3251 -8.8525 22.1674
O 9.9165 -8.8525 22.1674
O 13.5078 -8.8525 22.1674
Li -2.6533 -9.7039 22.1674
Li 0.9380 -9.7039 22.1674
Li 4.5294 -9.7039 22.1674
Li 8.1208 -9.7039 22.1674
Li 11.7121 -9.7039 22.1674
Li 15.3035 -9.7039 22.1674
H -4.4490 -12.2929 22.1674
H -0.8576 -12.2929 22.1674
H 2.7337 -12.2929 22.1674
H 6.3251 -12.2929 22.1674
H 9.9165 -12.2929 22.1674
H 13.5078 -12.2929 22.1674
Li 20.6905 -0.8829 23.9630
Li 2.7337 -0.8829 23.9630
Li 6.3251 -0.8829 23.9630
Li 9.9165 -0.8829 23.9630
Li 13.5078 -0.8829 23.9630
Li 17.0992 -0.8829 23.9630
O 0.9380 -1.7342 23.9630
O 4.5294 -1.7342 23.9630
O 8.1208 -1.7342 23.9630
O 11.7121 -1.7342 23.9630
O 15.3035 -1.7342 23.9630
O 18.8949 -1.7342 23.9630
H 0.9380 -2.7043 23.9630
H 4.5294 -2.7043 23.9630
H 8.1208 -2.7043 23.9630
H 11.7121 -2.7043 23.9630
H 15.3035 -2.7043 23.9630
H 18.8949 -2.7043 23.9630
Li -0.8576 -5.2934 23.9630
Li 2.7337 -5.2934 23.9630
Li 6.3251 -5.2934 23.9630
Li 9.9165 -5.2934 23.9630
Li 13.5078 -5.2934 23.9630
Li 17.0992 -5.2934 23.9630
O -2.6533 -6.1447 23.9630
O 0.9380 -6.1447 23.9630
O 4.5294 -6.1447 23.9630
O 8.1208 -6.1447 23.9630
O 11.7121 -6.1447 23.9630
O 15.3035 -6.1447 23.9630
H -2.6533 -7.1148 23.9630
H 0.9380 -7.1148 23.9630
H 4.5294 -7.1148 23.9630
H 8.1208 -7.1148 23.9630
H 11.7121 -7.1148 23.9630
H 15.3035 -7.1148 23.9630
Li -4.4490 -9.7039 23.9630
Li -0.8576 -9.7039 23.9630
Li 2.7337 -9.7039 23.9630
Li 6.3251 -9.7039 23.9630
Li 9.9165 -9.7039 23.9630
Li 13.5078 -9.7039 23.9630
O 15.3035 -10.5552 23.9630
O -2.6533 -10.5552 23.9630
O 0.9380 -10.5552 23.9630
O 4.5294 -10.5552 23.9630
O 8.1208 -10.5552 23.9630
O 11.7121 -10.5552 23.9630
H -6.2447 -11.5253 23.9630
H -2.6533 -11.5253 23.9630
H 0.9380 -11.5253 23.9630
H 4.5294 -11.5253 23.9630
H 8.1208 -11.5253 23.9630
H 11.7121 -11.5253 23.9630
O 20.6905 -0.0316 25.7587
O 2.7337 -0.0316 25.7587
O 6.3251 -0.0316 25.7587
O 9.9165 -0.0316 25.7587
O 13.5078 -0.0316 25.7587
O 17.0992 -0.0316 25.7587
Li 0.9380 -0.8829 25.7587
Li 4.5294 -0.8829 25.7587
Li 8.1208 -0.8829 25.7587
Li 11.7121 -0.8829 25.7587
Li 15.3035 -0.8829 25.7587
Li 18.8949 -0.8829 25.7587
H -0.8576 -3.4720 25.7587
H 2.7337 -3.4720 25.7587
H 6.3251 -3.4720 25.7587
H 9.9165 -3.4720 25.7587
H 13.5078 -3.4720 25.7587
H 17.0992 -3.4720 25.7587
O -0.8576 -4.4421 25.7587
O 2.7337 -4.4421 25.7587
O 6.3251 -4.4421 25.7587
O 9.9165 -4.4421 25.7587
O 13.5078 -4.4421 25.7587
O 17.0992 -4.4421 25.7587
Li -2.6533 -5.2934 25.7587
Li 0.9380 -5.2934 25.7587
Li 4.5294 -5.2934 25.7587
Li 8.1208 -5.2934 25.7587
Li 11.7121 -5.2934 25.7587
Li 15.3035 -5.2934 25.7587
H 17.0992 -7.8824 25.7587
H -0.8576 -7.8824 25.7587
H 2.7337 -7.8824 25.7587
H 6.3251 -7.8824 25.7587
H 9.9165 -7.8824 25.7587
H 13.5078 -7.8824 25.7587
O -4.4490 -8.8525 25.7587
O -0.8576 -8.8525 25.7587
O 2.7337 -8.8525 25.7587
O 6.3251 -8.8525 25.7587
O 9.9165 -8.8525 25.7587
O 13.5078 -8.8525 25.7587
Li -2.6533 -9.7039 25.7587
Li 0.9380 -9.7039 25.7587
Li 4.5294 -9.7039 25.7587
Li 8.1208 -9.7039 25.7587
Li 11.7121 -9.7039 25.7587
Li 15.3035 -9.7039 25.7587
H -4.4490 -12.2929 25.7587
H -0.8576 -12.2929 25.7587
H 2.7337 -12.2929 25.7587
H 6.3251 -12.2929 25.7587
H 9.9165 -12.2929 25.7587
H 13.5078 -12.2929 25.7587
Li 20.6905 -0.8829 27.5544
Li 2.7337 -0.8829 27.5544
Li 6.3251 -0.8829 27.5544
Li 9.9165 -0.8829 27.5544
Li 13.5078 -0.8829 27.5544
Li 17.0992 -0.8829 27.5544
O 0.9380 -1.7342 27.5544
O 4.5294 -1.7342 27.5544
O 8.1208 -1.7342 27.5544
O 11.7121 -1.7342 27.5544
O 15.3035 -1.7342 27.5544
O 18.8949 -1.7342 27.5544
H 0.9380 -2.7043 27.5544
H 4.5294 -2.7043 27.5544
H 8.1208 -2.7043 27.5544
H 11.7121 -2.7043 27.5544
H 15.3035 -2.7043 27.5544
H 18.8949 -2.7043 27.5544
Li -0.8576 -5.2934 27.5544
Li 2.7337 -5.2934 27.5544
Li 6.3251 -5.2934 27.5544
Li 9.9165 -5.2934 27.5544
Li 13.5078 -5.2934 27.5544
Li 17.0992 -5.2934 27.5544
O -2.6533 -6.1447 27.5544
O 0.9380 -6.1447 27.5544
O 4.5294 -6.1447 27.5544
O 8.1208 -6.1447 27.5544
O 11.7121 -6.1447 27.5544
O 15.3035 -6.1447 27.5544
H -2.6533 -7.1148 27.5544
H 0.9380 -7.1148 27.5544
H 4.5294 -7.1148 27.5544
H 8.1208 -7.1148 27.5544
H 11.7121 -7.1148 27.5544
H 15.3035 -7.1148 27.5544
Li -4.4490 -9.7039 27.5544
Li -0.8576 -9.7039 27.5544
Li 2.7337 -9.7039 27.5544
Li 6.3251 -9.7039 27.5544
Li 9.9165 -9.7039 27.5544
Li 13.5078 -9.7039 27.5544
O 15.3035 -10.5552 27.5544
O -2.6533 -10.5552 27.5544
O 0.9380 -10.5552 27.5544
O 4.5294 -10.5552 27.5544
O 8.1208 -10.5552 27.5544
O 11.7121 -10.5552 27.5544
H -6.2447 -11.5253 27.5544
H -2.6533 -11.5253 27.5544
H 0.9380 -11.5253 27.5544
H 4.5294 -11.5253 27.5544
H 8.1208 -11.5253 27.5544
H 11.7121 -11.5253 27.5544
O 20.6905 -0.0316 29.3501
O 2.7337 -0.0316 29.3501
O 6.3251 -0.0316 29.3501
O 9.9165 -0.0316 29.3501
O 13.5078 -0.0316 29.3501
O 17.0992 -0.0316 29.3501
Li 0.9380 -0.8829 29.3501
Li 4.5294 -0.8829 29.3501
Li 8.1208 -0.8829 29.3501
Li 11.7121 -0.8829 29.3501
Li 15.3035 -0.8829 29.3501
Li 18.8949 -0.8829 29.3501
H -0.8576 -3.4720 29.3501
H 2.7337 -3.4720 29.3501
H 6.3251 -3.4720 29.3501
H 9.9165 -3.4720 29.3501
H 13.5078 -3.4720 29.3501
H 17.0992 -3.4720 29.3501
O -0.8576 -4.4421 29.3501
O 2.7337 -4.4421 29.3501
O 6.3251 -4.4421 29.3501
O 9.9165 -4.4421 29.3501
O 13.5078 -4.4421 29.3501
O 17.0992 -4.4421 29.3501
Li -2.6533 -5.2934 29.3501
Li 0.9380 -5.2934 29.3501
Li 4.5294 -5.2934 29.3501
Li 8.1208 -5.2934 29.3501
Li 11.7121 -5.2934 29.3501
Li 15.3035 -5.2934 29.3501
H 17.0992 -7.8824 29.3501
H -0.8576 -7.8824 29.3501
H 2.7337 -7.8824 29.3501
H 6.3251 -7.8824 29.3501
H 9.9165 -7.8824 29.3501
H 13.5078 -7.8824 29.3501
O -4.4490 -8.8525 29.3501
O -0.8576 -8.8525 29.3501
O 2.7337 -8.8525 29.3501
O 6.3251 -8.8525 29.3501
O 9.9165 -8.8525 29.3501
O 13.5078 -8.8525 29.3501
Li -2.6533 -9.7039 29.3501
Li 0.9380 -9.7039 29.3501
Li 4.5294 -9.7039 29.3501
Li 8.1208 -9.7039 29.3501
Li 11.7121 -9.7039 29.3501
Li 15.3035 -9.7039 29.3501
H -4.4490 -12.2929 29.3501
H -0.8576 -12.2929 29.3501
H 2.7337 -12.2929 29.3501
H 6.3251 -12.2929 29.3501
H 9.9165 -12.2929 29.3501
H 13.5078 -12.2929 29.3501
