1148
XYZ file generated by QuantumATK for match 3
O 8.8567 -0.7576 1.0000
O 5.7626 -1.7890 1.0000
O 2.6685 -2.8204 1.0000
O -0.4256 -3.8517 1.0000
O 6.7939 -4.8831 1.0000
O 3.6998 -5.9145 1.0000
O 0.6057 -6.9458 1.0000
O 7.8253 -7.9772 1.0000
O 4.7312 -9.0086 1.0000
O 1.6371 -10.0399 1.0000
O -1.4570 -11.0713 1.0000
O 5.7626 -12.1027 1.0000
O 2.6685 -13.1340 1.0000
O -0.4256 -14.1654 1.0000
O 6.7939 -15.1968 1.0000
O 3.6998 -16.2281 1.0000
O 0.6057 -17.2595 1.0000
O -2.4884 -18.2909 1.0000
O 4.7312 -19.3222 1.0000
O 1.6371 -20.3536 1.0000
O -1.4570 -21.3850 1.0000
O 5.7626 -22.4163 1.0000
O 2.6685 -23.4477 1.0000
O -0.4256 -24.4791 1.0000
O -3.5197 -25.5104 1.0000
O 3.6998 -26.5418 1.0000
O 0.6057 -27.5732 1.0000
O -2.4884 -28.6045 1.0000
O 4.7312 -29.6359 1.0000
O 1.6371 -30.6673 1.0000
O -1.4570 -31.6986 1.0000
O -4.5511 -32.7300 1.0000
Li 0.0901 -0.2420 2.1531
Li 5.2469 -0.2420 2.1531
Li 2.1528 -1.2733 2.1531
Li 7.3096 -1.2733 2.1531
Li 4.2155 -2.3047 2.1531
Li 9.3723 -2.3047 2.1531
Li 1.1214 -3.3361 2.1531
Li 6.2782 -3.3361 2.1531
Li 3.1841 -4.3674 2.1531
Li 8.3410 -4.3674 2.1531
Li 0.0901 -5.3988 2.1531
Li 5.2469 -5.3988 2.1531
Li 2.1528 -6.4302 2.1531
Li 7.3096 -6.4302 2.1531
Li -0.9413 -7.4615 2.1531
Li 4.2155 -7.4615 2.1531
Li 1.1214 -8.4929 2.1531
Li 6.2782 -8.4929 2.1531
Li 3.1841 -9.5243 2.1531
Li 8.3410 -9.5243 2.1531
Li 0.0901 -10.5556 2.1531
Li 5.2469 -10.5556 2.1531
Li 2.1528 -11.5870 2.1531
Li 7.3096 -11.5870 2.1531
Li -0.9413 -12.6184 2.1531
Li 4.2155 -12.6184 2.1531
Li 1.1214 -13.6497 2.1531
Li 6.2782 -13.6497 2.1531
Li -1.9727 -14.6811 2.1531
Li 3.1841 -14.6811 2.1531
Li 0.0901 -15.7125 2.1531
Li 5.2469 -15.7125 2.1531
Li -3.0040 -16.7438 2.1531
Li 2.1528 -16.7438 2.1531
Li -0.9413 -17.7752 2.1531
Li 4.2155 -17.7752 2.1531
Li 1.1214 -18.8066 2.1531
Li 6.2782 -18.8066 2.1531
Li -1.9727 -19.8379 2.1531
Li 3.1841 -19.8379 2.1531
Li 0.0901 -20.8693 2.1531
Li 5.2469 -20.8693 2.1531
Li -3.0040 -21.9007 2.1531
Li 2.1528 -21.9007 2.1531
Li -0.9413 -22.9320 2.1531
Li 4.2155 -22.9320 2.1531
Li -4.0354 -23.9634 2.1531
Li 1.1214 -23.9634 2.1531
Li -1.9727 -24.9948 2.1531
Li 3.1841 -24.9948 2.1531
Li 0.0901 -26.0261 2.1531
Li 5.2469 -26.0261 2.1531
Li -3.0040 -27.0575 2.1531
Li 2.1528 -27.0575 2.1531
Li -0.9413 -28.0889 2.1531
Li 4.2155 -28.0889 2.1531
Li -4.0354 -29.1202 2.1531
Li 1.1214 -29.1202 2.1531
Li -1.9727 -30.1516 2.1531
Li 3.1841 -30.1516 2.1531
Li -5.0668 -31.1830 2.1531
Li 0.0901 -31.1830 2.1531
Li -3.0040 -32.2143 2.1531
Li 2.1528 -32.2143 2.1531
O 3.6998 -0.7576 3.3062
O 0.6057 -1.7890 3.3062
O 7.8253 -2.8204 3.3062
O 4.7312 -3.8517 3.3062
O 1.6371 -4.8831 3.3062
O 8.8567 -5.9145 3.3062
O 5.7626 -6.9458 3.3062
O 2.6685 -7.9772 3.3062
O -0.4256 -9.0086 3.3062
O 6.7939 -10.0399 3.3062
O 3.6998 -11.0713 3.3062
O 0.6057 -12.1027 3.3062
O 7.8253 -13.1340 3.3062
O 4.7312 -14.1654 3.3062
O 1.6371 -15.1968 3.3062
O -1.4570 -16.2281 3.3062
O 5.7626 -17.2595 3.3062
O 2.6685 -18.2909 3.3062
O -0.4256 -19.3222 3.3062
O -3.5197 -20.3536 3.3062
O 3.6998 -21.3850 3.3062
O 0.6057 -22.4163 3.3062
O -2.4884 -23.4477 3.3062
O 4.7312 -24.4791 3.3062
O 1.6371 -25.5104 3.3062
O -1.4570 -26.5418 3.3062
O -4.5511 -27.5732 3.3062
O 2.6685 -28.6045 3.3062
O -0.4256 -29.6359 3.3062
O -3.5197 -30.6673 3.3062
O 3.6998 -31.6986 3.3062
O 0.6057 -32.7300 3.3062
Li 0.0901 -0.2420 4.4593
Li 5.2469 -0.2420 4.4593
Li 2.1528 -1.2733 4.4593
Li 7.3096 -1.2733 4.4593
Li 4.2155 -2.3047 4.4593
Li 9.3723 -2.3047 4.4593
Li 1.1214 -3.3361 4.4593
Li 6.2782 -3.3361 4.4593
Li 3.1841 -4.3674 4.4593
Li 8.3410 -4.3674 4.4593
Li 0.0901 -5.3988 4.4593
Li 5.2469 -5.3988 4.4593
Li 2.1528 -6.4302 4.4593
Li 7.3096 -6.4302 4.4593
Li -0.9413 -7.4615 4.4593
Li 4.2155 -7.4615 4.4593
Li 1.1214 -8.4929 4.4593
Li 6.2782 -8.4929 4.4593
Li 3.1841 -9.5243 4.4593
Li 8.3410 -9.5243 4.4593
Li 0.0901 -10.5556 4.4593
Li 5.2469 -10.5556 4.4593
Li 2.1528 -11.5870 4.4593
Li 7.3096 -11.5870 4.4593
Li -0.9413 -12.6184 4.4593
Li 4.2155 -12.6184 4.4593
Li 1.1214 -13.6497 4.4593
Li 6.2782 -13.6497 4.4593
Li -1.9727 -14.6811 4.4593
Li 3.1841 -14.6811 4.4593
Li 0.0901 -15.7125 4.4593
Li 5.2469 -15.7125 4.4593
Li -3.0040 -16.7438 4.4593
Li 2.1528 -16.7438 4.4593
Li -0.9413 -17.7752 4.4593
Li 4.2155 -17.7752 4.4593
Li 1.1214 -18.8066 4.4593
Li 6.2782 -18.8066 4.4593
Li -1.9727 -19.8379 4.4593
Li 3.1841 -19.8379 4.4593
Li 0.0901 -20.8693 4.4593
Li 5.2469 -20.8693 4.4593
Li -3.0040 -21.9007 4.4593
Li 2.1528 -21.9007 4.4593
Li -0.9413 -22.9320 4.4593
Li 4.2155 -22.9320 4.4593
Li -4.0354 -23.9634 4.4593
Li 1.1214 -23.9634 4.4593
Li -1.9727 -24.9948 4.4593
Li 3.1841 -24.9948 4.4593
Li 0.0901 -26.0261 4.4593
Li 5.2469 -26.0261 4.4593
Li -3.0040 -27.0575 4.4593
Li 2.1528 -27.0575 4.4593
Li -0.9413 -28.0889 4.4593
Li 4.2155 -28.0889 4.4593
Li -4.0354 -29.1202 4.4593
Li 1.1214 -29.1202 4.4593
Li -1.9727 -30.1516 4.4593
Li 3.1841 -30.1516 4.4593
Li -5.0668 -31.1830 4.4593
Li 0.0901 -31.1830 4.4593
Li -3.0040 -32.2143 4.4593
Li 2.1528 -32.2143 4.4593
O 8.8567 -0.7576 5.6124
O 5.7626 -1.7890 5.6124
O 2.6685 -2.8204 5.6124
O -0.4256 -3.8517 5.6124
O 6.7939 -4.8831 5.6124
O 3.6998 -5.9145 5.6124
O 0.6057 -6.9458 5.6124
O 7.8253 -7.9772 5.6124
O 4.7312 -9.0086 5.6124
O 1.6371 -10.0399 5.6124
O -1.4570 -11.0713 5.6124
O 5.7626 -12.1027 5.6124
O 2.6685 -13.1340 5.6124
O -0.4256 -14.1654 5.6124
O 6.7939 -15.1968 5.6124
O 3.6998 -16.2281 5.6124
O 0.6057 -17.2595 5.6124
O -2.4884 -18.2909 5.6124
O 4.7312 -19.3222 5.6124
O 1.6371 -20.3536 5.6124
O -1.4570 -21.3850 5.6124
O 5.7626 -22.4163 5.6124
O 2.6685 -23.4477 5.6124
O -0.4256 -24.4791 5.6124
O -3.5197 -25.5104 5.6124
O 3.6998 -26.5418 5.6124
O 0.6057 -27.5732 5.6124
O -2.4884 -28.6045 5.6124
O 4.7312 -29.6359 5.6124
O 1.6371 -30.6673 5.6124
O -1.4570 -31.6986 5.6124
O -4.5511 -32.7300 5.6124
Li 0.0901 -0.2420 6.7655
Li 5.2469 -0.2420 6.7655
Li 2.1528 -1.2733 6.7655
Li 7.3096 -1.2733 6.7655
Li 4.2155 -2.3047 6.7655
Li 9.3723 -2.3047 6.7655
Li 1.1214 -3.3361 6.7655
Li 6.2782 -3.3361 6.7655
Li 3.1841 -4.3674 6.7655
Li 8.3410 -4.3674 6.7655
Li 0.0901 -5.3988 6.7655
Li 5.2469 -5.3988 6.7655
Li 2.1528 -6.4302 6.7655
Li 7.3096 -6.4302 6.7655
Li -0.9413 -7.4615 6.7655
Li 4.2155 -7.4615 6.7655
Li 1.1214 -8.4929 6.7655
Li 6.2782 -8.4929 6.7655
Li 3.1841 -9.5243 6.7655
Li 8.3410 -9.5243 6.7655
Li 0.0901 -10.5556 6.7655
Li 5.2469 -10.5556 6.7655
Li 2.1528 -11.5870 6.7655
Li 7.3096 -11.5870 6.7655
Li -0.9413 -12.6184 6.7655
Li 4.2155 -12.6184 6.7655
Li 1.1214 -13.6497 6.7655
Li 6.2782 -13.6497 6.7655
Li -1.9727 -14.6811 6.7655
Li 3.1841 -14.6811 6.7655
Li 0.0901 -15.7125 6.7655
Li 5.2469 -15.7125 6.7655
Li -3.0040 -16.7438 6.7655
Li 2.1528 -16.7438 6.7655
Li -0.9413 -17.7752 6.7655
Li 4.2155 -17.7752 6.7655
Li 1.1214 -18.8066 6.7655
Li 6.2782 -18.8066 6.7655
Li -1.9727 -19.8379 6.7655
Li 3.1841 -19.8379 6.7655
Li 0.0901 -20.8693 6.7655
Li 5.2469 -20.8693 6.7655
Li -3.0040 -21.9007 6.7655
Li 2.1528 -21.9007 6.7655
Li -0.9413 -22.9320 6.7655
Li 4.2155 -22.9320 6.7655
Li -4.0354 -23.9634 6.7655
Li 1.1214 -23.9634 6.7655
Li -1.9727 -24.9948 6.7655
Li 3.1841 -24.9948 6.7655
Li 0.0901 -26.0261 6.7655
Li 5.2469 -26.0261 6.7655
Li -3.0040 -27.0575 6.7655
Li 2.1528 -27.0575 6.7655
Li -0.9413 -28.0889 6.7655
Li 4.2155 -28.0889 6.7655
Li -4.0354 -29.1202 6.7655
Li 1.1214 -29.1202 6.7655
Li -1.9727 -30.1516 6.7655
Li 3.1841 -30.1516 6.7655
Li -5.0668 -31.1830 6.7655
Li 0.0901 -31.1830 6.7655
Li -3.0040 -32.2143 6.7655
Li 2.1528 -32.2143 6.7655
O 3.6998 -0.7576 7.9186
O 0.6057 -1.7890 7.9186
O 7.8253 -2.8204 7.9186
O 4.7312 -3.8517 7.9186
O 1.6371 -4.8831 7.9186
O 8.8567 -5.9145 7.9186
O 5.7626 -6.9458 7.9186
O 2.6685 -7.9772 7.9186
O -0.4256 -9.0086 7.9186
O 6.7939 -10.0399 7.9186
O 3.6998 -11.0713 7.9186
O 0.6057 -12.1027 7.9186
O 7.8253 -13.1340 7.9186
O 4.7312 -14.1654 7.9186
O 1.6371 -15.1968 7.9186
O -1.4570 -16.2281 7.9186
O 5.7626 -17.2595 7.9186
O 2.6685 -18.2909 7.9186
O -0.4256 -19.3222 7.9186
O -3.5197 -20.3536 7.9186
O 3.6998 -21.3850 7.9186
O 0.6057 -22.4163 7.9186
O -2.4884 -23.4477 7.9186
O 4.7312 -24.4791 7.9186
O 1.6371 -25.5104 7.9186
O -1.4570 -26.5418 7.9186
O -4.5511 -27.5732 7.9186
O 2.6685 -28.6045 7.9186
O -0.4256 -29.6359 7.9186
O -3.5197 -30.6673 7.9186
O 3.6998 -31.6986 7.9186
O 0.6057 -32.7300 7.9186
Li 0.0901 -0.2420 9.0717
Li 5.2469 -0.2420 9.0717
Li 2.1528 -1.2733 9.0717
Li 7.3096 -1.2733 9.0717
Li 4.2155 -2.3047 9.0717
Li 9.3723 -2.3047 9.0717
Li 1.1214 -3.3361 9.0717
Li 6.2782 -3.3361 9.0717
Li 3.1841 -4.3674 9.0717
Li 8.3410 -4.3674 9.0717
Li 0.0901 -5.3988 9.0717
Li 5.2469 -5.3988 9.0717
Li 2.1528 -6.4302 9.0717
Li 7.3096 -6.4302 9.0717
Li -0.9413 -7.4615 9.0717
Li 4.2155 -7.4615 9.0717
Li 1.1214 -8.4929 9.0717
Li 6.2782 -8.4929 9.0717
Li 3.1841 -9.5243 9.0717
Li 8.3410 -9.5243 9.0717
Li 0.0901 -10.5556 9.0717
Li 5.2469 -10.5556 9.0717
Li 2.1528 -11.5870 9.0717
Li 7.3096 -11.5870 9.0717
Li -0.9413 -12.6184 9.0717
Li 4.2155 -12.6184 9.0717
Li 1.1214 -13.6497 9.0717
Li 6.2782 -13.6497 9.0717
Li -1.9727 -14.6811 9.0717
Li 3.1841 -14.6811 9.0717
Li 0.0901 -15.7125 9.0717
Li 5.2469 -15.7125 9.0717
Li -3.0040 -16.7438 9.0717
Li 2.1528 -16.7438 9.0717
Li -0.9413 -17.7752 9.0717
Li 4.2155 -17.7752 9.0717
Li 1.1214 -18.8066 9.0717
Li 6.2782 -18.8066 9.0717
Li -1.9727 -19.8379 9.0717
Li 3.1841 -19.8379 9.0717
Li 0.0901 -20.8693 9.0717
Li 5.2469 -20.8693 9.0717
Li -3.0040 -21.9007 9.0717
Li 2.1528 -21.9007 9.0717
Li -0.9413 -22.9320 9.0717
Li 4.2155 -22.9320 9.0717
Li -4.0354 -23.9634 9.0717
Li 1.1214 -23.9634 9.0717
Li -1.9727 -24.9948 9.0717
Li 3.1841 -24.9948 9.0717
Li 0.0901 -26.0261 9.0717
Li 5.2469 -26.0261 9.0717
Li -3.0040 -27.0575 9.0717
Li 2.1528 -27.0575 9.0717
Li -0.9413 -28.0889 9.0717
Li 4.2155 -28.0889 9.0717
Li -4.0354 -29.1202 9.0717
Li 1.1214 -29.1202 9.0717
Li -1.9727 -30.1516 9.0717
Li 3.1841 -30.1516 9.0717
Li -5.0668 -31.1830 9.0717
Li 0.0901 -31.1830 9.0717
Li -3.0040 -32.2143 9.0717
Li 2.1528 -32.2143 9.0717
O 8.8567 -0.7576 10.2248
O 5.7626 -1.7890 10.2248
O 2.6685 -2.8204 10.2248
O -0.4256 -3.8517 10.2248
O 6.7939 -4.8831 10.2248
O 3.6998 -5.9145 10.2248
O 0.6057 -6.9458 10.2248
O 7.8253 -7.9772 10.2248
O 4.7312 -9.0086 10.2248
O 1.6371 -10.0399 10.2248
O -1.4570 -11.0713 10.2248
O 5.7626 -12.1027 10.2248
O 2.6685 -13.1340 10.2248
O -0.4256 -14.1654 10.2248
O 6.7939 -15.1968 10.2248
O 3.6998 -16.2281 10.2248
O 0.6057 -17.2595 10.2248
O -2.4884 -18.2909 10.2248
O 4.7312 -19.3222 10.2248
O 1.6371 -20.3536 10.2248
O -1.4570 -21.3850 10.2248
O 5.7626 -22.4163 10.2248
O 2.6685 -23.4477 10.2248
O -0.4256 -24.4791 10.2248
O -3.5197 -25.5104 10.2248
O 3.6998 -26.5418 10.2248
O 0.6057 -27.5732 10.2248
O -2.4884 -28.6045 10.2248
O 4.7312 -29.6359 10.2248
O 1.6371 -30.6673 10.2248
O -1.4570 -31.6986 10.2248
O -4.5511 -32.7300 10.2248
Li 0.0901 -0.2420 11.3779
Li 5.2469 -0.2420 11.3779
Li 2.1528 -1.2733 11.3779
Li 7.3096 -1.2733 11.3779
Li 4.2155 -2.3047 11.3779
Li 9.3723 -2.3047 11.3779
Li 1.1214 -3.3361 11.3779
Li 6.2782 -3.3361 11.3779
Li 3.1841 -4.3674 11.3779
Li 8.3410 -4.3674 11.3779
Li 0.0901 -5.3988 11.3779
Li 5.2469 -5.3988 11.3779
Li 2.1528 -6.4302 11.3779
Li 7.3096 -6.4302 11.3779
Li -0.9413 -7.4615 11.3779
Li 4.2155 -7.4615 11.3779
Li 1.1214 -8.4929 11.3779
Li 6.2782 -8.4929 11.3779
Li 3.1841 -9.5243 11.3779
Li 8.3410 -9.5243 11.3779
Li 0.0901 -10.5556 11.3779
Li 5.2469 -10.5556 11.3779
Li 2.1528 -11.5870 11.3779
Li 7.3096 -11.5870 11.3779
Li -0.9413 -12.6184 11.3779
Li 4.2155 -12.6184 11.3779
Li 1.1214 -13.6497 11.3779
Li 6.2782 -13.6497 11.3779
Li -1.9727 -14.6811 11.3779
Li 3.1841 -14.6811 11.3779
Li 0.0901 -15.7125 11.3779
Li 5.2469 -15.7125 11.3779
Li -3.0040 -16.7438 11.3779
Li 2.1528 -16.7438 11.3779
Li -0.9413 -17.7752 11.3779
Li 4.2155 -17.7752 11.3779
Li 1.1214 -18.8066 11.3779
Li 6.2782 -18.8066 11.3779
Li -1.9727 -19.8379 11.3779
Li 3.1841 -19.8379 11.3779
Li 0.0901 -20.8693 11.3779
Li 5.2469 -20.8693 11.3779
Li -3.0040 -21.9007 11.3779
Li 2.1528 -21.9007 11.3779
Li -0.9413 -22.9320 11.3779
Li 4.2155 -22.9320 11.3779
Li -4.0354 -23.9634 11.3779
Li 1.1214 -23.9634 11.3779
Li -1.9727 -24.9948 11.3779
Li 3.1841 -24.9948 11.3779
Li 0.0901 -26.0261 11.3779
Li 5.2469 -26.0261 11.3779
Li -3.0040 -27.0575 11.3779
Li 2.1528 -27.0575 11.3779
Li -0.9413 -28.0889 11.3779
Li 4.2155 -28.0889 11.3779
Li -4.0354 -29.1202 11.3779
Li 1.1214 -29.1202 11.3779
Li -1.9727 -30.1516 11.3779
Li 3.1841 -30.1516 11.3779
Li -5.0668 -31.1830 11.3779
Li 0.0901 -31.1830 11.3779
Li -3.0040 -32.2143 11.3779
Li 2.1528 -32.2143 11.3779
O 3.6998 -0.7576 12.5310
O 0.6057 -1.7890 12.5310
O 7.8253 -2.8204 12.5310
O 4.7312 -3.8517 12.5310
O 1.6371 -4.8831 12.5310
O 8.8567 -5.9145 12.5310
O 5.7626 -6.9458 12.5310
O 2.6685 -7.9772 12.5310
O -0.4256 -9.0086 12.5310
O 6.7939 -10.0399 12.5310
O 3.6998 -11.0713 12.5310
O 0.6057 -12.1027 12.5310
O 7.8253 -13.1340 12.5310
O 4.7312 -14.1654 12.5310
O 1.6371 -15.1968 12.5310
O -1.4570 -16.2281 12.5310
O 5.7626 -17.2595 12.5310
O 2.6685 -18.2909 12.5310
O -0.4256 -19.3222 12.5310
O -3.5197 -20.3536 12.5310
O 3.6998 -21.3850 12.5310
O 0.6057 -22.4163 12.5310
O -2.4884 -23.4477 12.5310
O 4.7312 -24.4791 12.5310
O 1.6371 -25.5104 12.5310
O -1.4570 -26.5418 12.5310
O -4.5511 -27.5732 12.5310
O 2.6685 -28.6045 12.5310
O -0.4256 -29.6359 12.5310
O -3.5197 -30.6673 12.5310
O 3.6998 -31.6986 12.5310
O 0.6057 -32.7300 12.5310
Li 0.0901 -0.2420 13.6841
Li 5.2469 -0.2420 13.6841
Li 2.1528 -1.2733 13.6841
Li 7.3096 -1.2733 13.6841
Li 4.2155 -2.3047 13.6841
Li 9.3723 -2.3047 13.6841
Li 1.1214 -3.3361 13.6841
Li 6.2782 -3.3361 13.6841
Li 3.1841 -4.3674 13.6841
Li 8.3410 -4.3674 13.6841
Li 0.0901 -5.3988 13.6841
Li 5.2469 -5.3988 13.6841
Li 2.1528 -6.4302 13.6841
Li 7.3096 -6.4302 13.6841
Li -0.9413 -7.4615 13.6841
Li 4.2155 -7.4615 13.6841
Li 1.1214 -8.4929 13.6841
Li 6.2782 -8.4929 13.6841
Li 3.1841 -9.5243 13.6841
Li 8.3410 -9.5243 13.6841
Li 0.0901 -10.5556 13.6841
Li 5.2469 -10.5556 13.6841
Li 2.1528 -11.5870 13.6841
Li 7.3096 -11.5870 13.6841
Li -0.9413 -12.6184 13.6841
Li 4.2155 -12.6184 13.6841
Li 1.1214 -13.6497 13.6841
Li 6.2782 -13.6497 13.6841
Li -1.9727 -14.6811 13.6841
Li 3.1841 -14.6811 13.6841
Li 0.0901 -15.7125 13.6841
Li 5.2469 -15.7125 13.6841
Li -3.0040 -16.7438 13.6841
Li 2.1528 -16.7438 13.6841
Li -0.9413 -17.7752 13.6841
Li 4.2155 -17.7752 13.6841
Li 1.1214 -18.8066 13.6841
Li 6.2782 -18.8066 13.6841
Li -1.9727 -19.8379 13.6841
Li 3.1841 -19.8379 13.6841
Li 0.0901 -20.8693 13.6841
Li 5.2469 -20.8693 13.6841
Li -3.0040 -21.9007 13.6841
Li 2.1528 -21.9007 13.6841
Li -0.9413 -22.9320 13.6841
Li 4.2155 -22.9320 13.6841
Li -4.0354 -23.9634 13.6841
Li 1.1214 -23.9634 13.6841
Li -1.9727 -24.9948 13.6841
Li 3.1841 -24.9948 13.6841
Li 0.0901 -26.0261 13.6841
Li 5.2469 -26.0261 13.6841
Li -3.0040 -27.0575 13.6841
Li 2.1528 -27.0575 13.6841
Li -0.9413 -28.0889 13.6841
Li 4.2155 -28.0889 13.6841
Li -4.0354 -29.1202 13.6841
Li 1.1214 -29.1202 13.6841
Li -1.9727 -30.1516 13.6841
Li 3.1841 -30.1516 13.6841
Li -5.0668 -31.1830 13.6841
Li 0.0901 -31.1830 13.6841
Li -3.0040 -32.2143 13.6841
Li 2.1528 -32.2143 13.6841
O 8.8567 -0.7576 14.8372
O 5.7626 -1.7890 14.8372
O 2.6685 -2.8204 14.8372
O -0.4256 -3.8517 14.8372
O 6.7939 -4.8831 14.8372
O 3.6998 -5.9145 14.8372
O 0.6057 -6.9458 14.8372
O 7.8253 -7.9772 14.8372
O 4.7312 -9.0086 14.8372
O 1.6371 -10.0399 14.8372
O -1.4570 -11.0713 14.8372
O 5.7626 -12.1027 14.8372
O 2.6685 -13.1340 14.8372
O -0.4256 -14.1654 14.8372
O 6.7939 -15.1968 14.8372
O 3.6998 -16.2281 14.8372
O 0.6057 -17.2595 14.8372
O -2.4884 -18.2909 14.8372
O 4.7312 -19.3222 14.8372
O 1.6371 -20.3536 14.8372
O -1.4570 -21.3850 14.8372
O 5.7626 -22.4163 14.8372
O 2.6685 -23.4477 14.8372
O -0.4256 -24.4791 14.8372
O -3.5197 -25.5104 14.8372
O 3.6998 -26.5418 14.8372
O 0.6057 -27.5732 14.8372
O -2.4884 -28.6045 14.8372
O 4.7312 -29.6359 14.8372
O 1.6371 -30.6673 14.8372
O -1.4570 -31.6986 14.8372
O -4.5511 -32.7300 14.8372
Li -0.0000 -1.7668 16.4656
Li 5.1568 -1.7668 16.4656
Li 1.3064 -3.9671 16.4656
Li 6.4632 -3.9671 16.4656
Li 2.6128 -6.1673 16.4656
Li 7.7696 -6.1673 16.4656
Li -1.2377 -8.3675 16.4656
Li 3.9192 -8.3675 16.4656
Li 0.0687 -10.5678 16.4656
Li 5.2256 -10.5678 16.4656
Li 1.3751 -12.7680 16.4656
Li 6.5320 -12.7680 16.4656
Li -2.4753 -14.9683 16.4656
Li 2.6815 -14.9683 16.4656
Li -1.1689 -17.1685 16.4656
Li 3.9879 -17.1685 16.4656
Li 0.1375 -19.3688 16.4656
Li 5.2943 -19.3688 16.4656
Li -3.7129 -21.5690 16.4656
Li 1.4439 -21.5690 16.4656
Li -2.4066 -23.7693 16.4656
Li 2.7503 -23.7693 16.4656
Li -1.1002 -25.9695 16.4656
Li 4.0567 -25.9695 16.4656
Li -4.9506 -28.1698 16.4656
Li 0.2062 -28.1698 16.4656
Li -3.6442 -30.3700 16.4656
Li 1.5126 -30.3700 16.4656
Li -2.3378 -32.5703 16.4656
Li 2.8190 -32.5703 16.4656
O 5.2468 -0.2420 17.7353
O 8.9172 -1.0914 17.7353
H 8.0703 -1.5753 17.7353
H 2.2433 -1.9583 17.7353
O 1.3964 -2.4422 17.7353
O 5.0668 -3.2916 17.7353
H 4.2199 -3.7756 17.7353
H 8.7065 -4.1585 17.7353
O 7.8596 -4.6425 17.7353
O 1.2163 -5.4919 17.7353
H 0.3694 -5.9758 17.7353
H 4.8561 -6.3588 17.7353
O 4.0092 -6.8427 17.7353
O 7.6796 -7.6921 17.7353
H 6.8327 -8.1761 17.7353
H 1.0057 -8.5590 17.7353
O 0.1587 -9.0430 17.7353
O 3.8291 -9.8924 17.7353
H 2.9822 -10.3763 17.7353
H 7.4689 -10.7593 17.7353
O 6.6220 -11.2432 17.7353
O -0.0213 -12.0926 17.7353
H -0.8682 -12.5766 17.7353
H 3.6185 -12.9595 17.7353
O 2.7715 -13.4435 17.7353
O 6.4419 -14.2929 17.7353
H 5.5950 -14.7768 17.7353
H -0.2320 -15.1598 17.7353
O -1.0789 -15.6437 17.7353
O 2.5915 -16.4931 17.7353
H 1.7446 -16.9771 17.7353
H 6.2312 -17.3600 17.7353
O 5.3843 -17.8440 17.7353
O -1.2589 -18.6934 17.7353
H -2.1058 -19.1773 17.7353
H 2.3808 -19.5603 17.7353
O 1.5339 -20.0442 17.7353
O 5.2043 -20.8936 17.7353
H 4.3574 -21.3776 17.7353
H -1.4696 -21.7605 17.7353
O -2.3165 -22.2445 17.7353
O 1.3539 -23.0939 17.7353
H 0.5070 -23.5778 17.7353
H 4.9936 -23.9608 17.7353
O 4.1467 -24.4447 17.7353
O -2.4966 -25.2941 17.7353
H -3.3435 -25.7781 17.7353
H 1.1432 -26.1610 17.7353
O 0.2963 -26.6450 17.7353
O 3.9667 -27.4944 17.7353
H 3.1197 -27.9783 17.7353
H -2.7073 -28.3613 17.7353
O -3.5542 -28.8452 17.7353
O 0.1162 -29.6946 17.7353
H -0.7307 -30.1785 17.7353
H 3.7560 -30.5615 17.7353
O 2.9091 -31.0455 17.7353
O -3.7342 -31.8948 17.7353
H -4.5811 -32.3788 17.7353
H -0.0945 -32.7618 17.7353
Li -0.0000 -1.7668 19.0051
Li 5.1568 -1.7668 19.0051
Li 1.3064 -3.9671 19.0051
Li 6.4632 -3.9671 19.0051
Li 2.6128 -6.1673 19.0051
Li 7.7696 -6.1673 19.0051
Li -1.2377 -8.3675 19.0051
Li 3.9192 -8.3675 19.0051
Li 0.0687 -10.5678 19.0051
Li 5.2256 -10.5678 19.0051
Li 1.3751 -12.7680 19.0051
Li 6.5320 -12.7680 19.0051
Li -2.4753 -14.9683 19.0051
Li 2.6815 -14.9683 19.0051
Li -1.1689 -17.1685 19.0051
Li 3.9879 -17.1685 19.0051
Li 0.1375 -19.3688 19.0051
Li 5.2943 -19.3688 19.0051
Li -3.7129 -21.5690 19.0051
Li 1.4439 -21.5690 19.0051
Li -2.4066 -23.7693 19.0051
Li 2.7503 -23.7693 19.0051
Li -1.1002 -25.9695 19.0051
Li 4.0567 -25.9695 19.0051
Li -4.9506 -28.1698 19.0051
Li 0.2062 -28.1698 19.0051
Li -3.6442 -30.3700 19.0051
Li 1.5126 -30.3700 19.0051
Li -2.3378 -32.5703 19.0051
Li 2.8190 -32.5703 19.0051
O 0.0900 -0.2420 20.2748
O 3.7604 -1.0914 20.2748
H 2.9135 -1.5753 20.2748
H 7.4001 -1.9583 20.2748
O 6.5532 -2.4422 20.2748
O -0.0901 -3.2916 20.2748
H 9.3767 -3.7756 20.2748
H 3.5497 -4.1585 20.2748
O 2.7028 -4.6425 20.2748
O 6.3732 -5.4919 20.2748
H 5.5263 -5.9758 20.2748
H -0.3007 -6.3588 20.2748
O -1.1477 -6.8427 20.2748
O 2.5227 -7.6921 20.2748
H 1.6758 -8.1761 20.2748
H 6.1625 -8.5590 20.2748
O 5.3156 -9.0430 20.2748
O -1.3277 -9.8924 20.2748
H 8.1391 -10.3763 20.2748
H 2.3121 -10.7593 20.2748
O 1.4651 -11.2432 20.2748
O 5.1355 -12.0926 20.2748
H 4.2886 -12.5766 20.2748
H -1.5384 -12.9595 20.2748
O -2.3853 -13.4435 20.2748
O 1.2851 -14.2929 20.2748
H 0.4382 -14.7768 20.2748
H 4.9248 -15.1598 20.2748
O 4.0779 -15.6437 20.2748
O -2.5653 -16.4931 20.2748
H 6.9014 -16.9771 20.2748
H 1.0744 -17.3600 20.2748
O 0.2275 -17.8440 20.2748
O 3.8979 -18.6934 20.2748
H 3.0510 -19.1773 20.2748
H -2.7760 -19.5603 20.2748
O -3.6229 -20.0442 20.2748
O 0.0475 -20.8936 20.2748
H -0.7994 -21.3776 20.2748
H 3.6872 -21.7605 20.2748
O 2.8403 -22.2445 20.2748
O -3.8030 -23.0939 20.2748
H 5.6638 -23.5778 20.2748
H -0.1632 -23.9608 20.2748
O -1.0101 -24.4447 20.2748
O 2.6603 -25.2941 20.2748
H 1.8133 -25.7781 20.2748
H -4.0137 -26.1610 20.2748
O -4.8606 -26.6450 20.2748
O -1.1902 -27.4944 20.2748
H -2.0371 -27.9783 20.2748
H 2.4496 -28.3613 20.2748
O 1.6027 -28.8452 20.2748
O -5.0406 -29.6946 20.2748
H 4.4261 -30.1785 20.2748
H -1.4009 -30.5615 20.2748
O -2.2478 -31.0455 20.2748
O 1.4226 -31.8948 20.2748
H 0.5757 -32.3788 20.2748
H -5.2513 -32.7618 20.2748
Li -0.0000 -1.7668 21.5446
Li 5.1568 -1.7668 21.5446
Li 1.3064 -3.9671 21.5446
Li 6.4632 -3.9671 21.5446
Li 2.6128 -6.1673 21.5446
Li 7.7696 -6.1673 21.5446
Li -1.2377 -8.3675 21.5446
Li 3.9192 -8.3675 21.5446
Li 0.0687 -10.5678 21.5446
Li 5.2256 -10.5678 21.5446
Li 1.3751 -12.7680 21.5446
Li 6.5320 -12.7680 21.5446
Li -2.4753 -14.9683 21.5446
Li 2.6815 -14.9683 21.5446
Li -1.1689 -17.1685 21.5446
Li 3.9879 -17.1685 21.5446
Li 0.1375 -19.3688 21.5446
Li 5.2943 -19.3688 21.5446
Li -3.7129 -21.5690 21.5446
Li 1.4439 -21.5690 21.5446
Li -2.4066 -23.7693 21.5446
Li 2.7503 -23.7693 21.5446
Li -1.1002 -25.9695 21.5446
Li 4.0567 -25.9695 21.5446
Li -4.9506 -28.1698 21.5446
Li 0.2062 -28.1698 21.5446
Li -3.6442 -30.3700 21.5446
Li 1.5126 -30.3700 21.5446
Li -2.3378 -32.5703 21.5446
Li 2.8190 -32.5703 21.5446
O 5.2468 -0.2420 22.8143
O 8.9172 -1.0914 22.8143
H 8.0703 -1.5753 22.8143
H 2.2433 -1.9583 22.8143
O 1.3964 -2.4422 22.8143
O 5.0668 -3.2916 22.8143
H 4.2199 -3.7756 22.8143
H 8.7065 -4.1585 22.8143
O 7.8596 -4.6425 22.8143
O 1.2163 -5.4919 22.8143
H 0.3694 -5.9758 22.8143
H 4.8561 -6.3588 22.8143
O 4.0092 -6.8427 22.8143
O 7.6796 -7.6921 22.8143
H 6.8327 -8.1761 22.8143
H 1.0057 -8.5590 22.8143
O 0.1587 -9.0430 22.8143
O 3.8291 -9.8924 22.8143
H 2.9822 -10.3763 22.8143
H 7.4689 -10.7593 22.8143
O 6.6220 -11.2432 22.8143
O -0.0213 -12.0926 22.8143
H -0.8682 -12.5766 22.8143
H 3.6185 -12.9595 22.8143
O 2.7715 -13.4435 22.8143
O 6.4419 -14.2929 22.8143
H 5.5950 -14.7768 22.8143
H -0.2320 -15.1598 22.8143
O -1.0789 -15.6437 22.8143
O 2.5915 -16.4931 22.8143
H 1.7446 -16.9771 22.8143
H 6.2312 -17.3600 22.8143
O 5.3843 -17.8440 22.8143
O -1.2589 -18.6934 22.8143
H -2.1058 -19.1773 22.8143
H 2.3808 -19.5603 22.8143
O 1.5339 -20.0442 22.8143
O 5.2043 -20.8936 22.8143
H 4.3574 -21.3776 22.8143
H -1.4696 -21.7605 22.8143
O -2.3165 -22.2445 22.8143
O 1.3539 -23.0939 22.8143
H 0.5070 -23.5778 22.8143
H 4.9936 -23.9608 22.8143
O 4.1467 -24.4447 22.8143
O -2.4966 -25.2941 22.8143
H -3.3435 -25.7781 22.8143
H 1.1432 -26.1610 22.8143
O 0.2963 -26.6450 22.8143
O 3.9667 -27.4944 22.8143
H 3.1197 -27.9783 22.8143
H -2.7073 -28.3613 22.8143
O -3.5542 -28.8452 22.8143
O 0.1162 -29.6946 22.8143
H -0.7307 -30.1785 22.8143
H 3.7560 -30.5615 22.8143
O 2.9091 -31.0455 22.8143
O -3.7342 -31.8948 22.8143
H -4.5811 -32.3788 22.8143
H -0.0945 -32.7618 22.8143
Li -0.0000 -1.7668 24.0840
Li 5.1568 -1.7668 24.0840
Li 1.3064 -3.9671 24.0840
Li 6.4632 -3.9671 24.0840
Li 2.6128 -6.1673 24.0840
Li 7.7696 -6.1673 24.0840
Li -1.2377 -8.3675 24.0840
Li 3.9192 -8.3675 24.0840
Li 0.0687 -10.5678 24.0840
Li 5.2256 -10.5678 24.0840
Li 1.3751 -12.7680 24.0840
Li 6.5320 -12.7680 24.0840
Li -2.4753 -14.9683 24.0840
Li 2.6815 -14.9683 24.0840
Li -1.1689 -17.1685 24.0840
Li 3.9879 -17.1685 24.0840
Li 0.1375 -19.3688 24.0840
Li 5.2943 -19.3688 24.0840
Li -3.7129 -21.5690 24.0840
Li 1.4439 -21.5690 24.0840
Li -2.4066 -23.7693 24.0840
Li 2.7503 -23.7693 24.0840
Li -1.1002 -25.9695 24.0840
Li 4.0567 -25.9695 24.0840
Li -4.9506 -28.1698 24.0840
Li 0.2062 -28.1698 24.0840
Li -3.6442 -30.3700 24.0840
Li 1.5126 -30.3700 24.0840
Li -2.3378 -32.5703 24.0840
Li 2.8190 -32.5703 24.0840
O 0.0900 -0.2420 25.3538
O 3.7604 -1.0914 25.3538
H 2.9135 -1.5753 25.3538
H 7.4001 -1.9583 25.3538
O 6.5532 -2.4422 25.3538
O -0.0901 -3.2916 25.3538
H 9.3767 -3.7756 25.3538
H 3.5497 -4.1585 25.3538
O 2.7028 -4.6425 25.3538
O 6.3732 -5.4919 25.3538
H 5.5263 -5.9758 25.3538
H -0.3007 -6.3588 25.3538
O -1.1477 -6.8427 25.3538
O 2.5227 -7.6921 25.3538
H 1.6758 -8.1761 25.3538
H 6.1625 -8.5590 25.3538
O 5.3156 -9.0430 25.3538
O -1.3277 -9.8924 25.3538
H 8.1391 -10.3763 25.3538
H 2.3121 -10.7593 25.3538
O 1.4651 -11.2432 25.3538
O 5.1355 -12.0926 25.3538
H 4.2886 -12.5766 25.3538
H -1.5384 -12.9595 25.3538
O -2.3853 -13.4435 25.3538
O 1.2851 -14.2929 25.3538
H 0.4382 -14.7768 25.3538
H 4.9248 -15.1598 25.3538
O 4.0779 -15.6437 25.3538
O -2.5653 -16.4931 25.3538
H 6.9014 -16.9771 25.3538
H 1.0744 -17.3600 25.3538
O 0.2275 -17.8440 25.3538
O 3.8979 -18.6934 25.3538
H 3.0510 -19.1773 25.3538
H -2.7760 -19.5603 25.3538
O -3.6229 -20.0442 25.3538
O 0.0475 -20.8936 25.3538
H -0.7994 -21.3776 25.3538
H 3.6872 -21.7605 25.3538
O 2.8403 -22.2445 25.3538
O -3.8030 -23.0939 25.3538
H 5.6638 -23.5778 25.3538
H -0.1632 -23.9608 25.3538
O -1.0101 -24.4447 25.3538
O 2.6603 -25.2941 25.3538
H 1.8133 -25.7781 25.3538
H -4.0137 -26.1610 25.3538
O -4.8606 -26.6450 25.3538
O -1.1902 -27.4944 25.3538
H -2.0371 -27.9783 25.3538
H 2.4496 -28.3613 25.3538
O 1.6027 -28.8452 25.3538
O -5.0406 -29.6946 25.3538
H 4.4261 -30.1785 25.3538
H -1.4009 -30.5615 25.3538
O -2.2478 -31.0455 25.3538
O 1.4226 -31.8948 25.3538
H 0.5757 -32.3788 25.3538
H -5.2513 -32.7618 25.3538
Li -0.0000 -1.7668 26.6235
Li 5.1568 -1.7668 26.6235
Li 1.3064 -3.9671 26.6235
Li 6.4632 -3.9671 26.6235
Li 2.6128 -6.1673 26.6235
Li 7.7696 -6.1673 26.6235
Li -1.2377 -8.3675 26.6235
Li 3.9192 -8.3675 26.6235
Li 0.0687 -10.5678 26.6235
Li 5.2256 -10.5678 26.6235
Li 1.3751 -12.7680 26.6235
Li 6.5320 -12.7680 26.6235
Li -2.4753 -14.9683 26.6235
Li 2.6815 -14.9683 26.6235
Li -1.1689 -17.1685 26.6235
Li 3.9879 -17.1685 26.6235
Li 0.1375 -19.3688 26.6235
Li 5.2943 -19.3688 26.6235
Li -3.7129 -21.5690 26.6235
Li 1.4439 -21.5690 26.6235
Li -2.4066 -23.7693 26.6235
Li 2.7503 -23.7693 26.6235
Li -1.1002 -25.9695 26.6235
Li 4.0567 -25.9695 26.6235
Li -4.9506 -28.1698 26.6235
Li 0.2062 -28.1698 26.6235
Li -3.6442 -30.3700 26.6235
Li 1.5126 -30.3700 26.6235
Li -2.3378 -32.5703 26.6235
Li 2.8190 -32.5703 26.6235
O 5.2468 -0.2420 27.8933
O 8.9172 -1.0914 27.8933
H 8.0703 -1.5753 27.8933
H 2.2433 -1.9583 27.8933
O 1.3964 -2.4422 27.8933
O 5.0668 -3.2916 27.8933
H 4.2199 -3.7756 27.8933
H 8.7065 -4.1585 27.8933
O 7.8596 -4.6425 27.8933
O 1.2163 -5.4919 27.8933
H 0.3694 -5.9758 27.8933
H 4.8561 -6.3588 27.8933
O 4.0092 -6.8427 27.8933
O 7.6796 -7.6921 27.8933
H 6.8327 -8.1761 27.8933
H 1.0057 -8.5590 27.8933
O 0.1587 -9.0430 27.8933
O 3.8291 -9.8924 27.8933
H 2.9822 -10.3763 27.8933
H 7.4689 -10.7593 27.8933
O 6.6220 -11.2432 27.8933
O -0.0213 -12.0926 27.8933
H -0.8682 -12.5766 27.8933
H 3.6185 -12.9595 27.8933
O 2.7715 -13.4435 27.8933
O 6.4419 -14.2929 27.8933
H 5.5950 -14.7768 27.8933
H -0.2320 -15.1598 27.8933
O -1.0789 -15.6437 27.8933
O 2.5915 -16.4931 27.8933
H 1.7446 -16.9771 27.8933
H 6.2312 -17.3600 27.8933
O 5.3843 -17.8440 27.8933
O -1.2589 -18.6934 27.8933
H -2.1058 -19.1773 27.8933
H 2.3808 -19.5603 27.8933
O 1.5339 -20.0442 27.8933
O 5.2043 -20.8936 27.8933
H 4.3574 -21.3776 27.8933
H -1.4696 -21.7605 27.8933
O -2.3165 -22.2445 27.8933
O 1.3539 -23.0939 27.8933
H 0.5070 -23.5778 27.8933
H 4.9936 -23.9608 27.8933
O 4.1467 -24.4447 27.8933
O -2.4966 -25.2941 27.8933
H -3.3435 -25.7781 27.8933
H 1.1432 -26.1610 27.8933
O 0.2963 -26.6450 27.8933
O 3.9667 -27.4944 27.8933
H 3.1197 -27.9783 27.8933
H -2.7073 -28.3613 27.8933
O -3.5542 -28.8452 27.8933
O 0.1162 -29.6946 27.8933
H -0.7307 -30.1785 27.8933
H 3.7560 -30.5615 27.8933
O 2.9091 -31.0455 27.8933
O -3.7342 -31.8948 27.8933
H -4.5811 -32.3788 27.8933
H -0.0945 -32.7618 27.8933
Li -0.0000 -1.7668 29.1630
Li 5.1568 -1.7668 29.1630
Li 1.3064 -3.9671 29.1630
Li 6.4632 -3.9671 29.1630
Li 2.6128 -6.1673 29.1630
Li 7.7696 -6.1673 29.1630
Li -1.2377 -8.3675 29.1630
Li 3.9192 -8.3675 29.1630
Li 0.0687 -10.5678 29.1630
Li 5.2256 -10.5678 29.1630
Li 1.3751 -12.7680 29.1630
Li 6.5320 -12.7680 29.1630
Li -2.4753 -14.9683 29.1630
Li 2.6815 -14.9683 29.1630
Li -1.1689 -17.1685 29.1630
Li 3.9879 -17.1685 29.1630
Li 0.1375 -19.3688 29.1630
Li 5.2943 -19.3688 29.1630
Li -3.7129 -21.5690 29.1630
Li 1.4439 -21.5690 29.1630
Li -2.4066 -23.7693 29.1630
Li 2.7503 -23.7693 29.1630
Li -1.1002 -25.9695 29.1630
Li 4.0567 -25.9695 29.1630
Li -4.9506 -28.1698 29.1630
Li 0.2062 -28.1698 29.1630
Li -3.6442 -30.3700 29.1630
Li 1.5126 -30.3700 29.1630
Li -2.3378 -32.5703 29.1630
Li 2.8190 -32.5703 29.1630
O 0.0900 -0.2420 30.4327
O 3.7604 -1.0914 30.4327
H 2.9135 -1.5753 30.4327
H 7.4001 -1.9583 30.4327
O 6.5532 -2.4422 30.4327
O -0.0901 -3.2916 30.4327
H 9.3767 -3.7756 30.4327
H 3.5497 -4.1585 30.4327
O 2.7028 -4.6425 30.4327
O 6.3732 -5.4919 30.4327
H 5.5263 -5.9758 30.4327
H -0.3007 -6.3588 30.4327
O -1.1477 -6.8427 30.4327
O 2.5227 -7.6921 30.4327
H 1.6758 -8.1761 30.4327
H 6.1625 -8.5590 30.4327
O 5.3156 -9.0430 30.4327
O -1.3277 -9.8924 30.4327
H 8.1391 -10.3763 30.4327
H 2.3121 -10.7593 30.4327
O 1.4651 -11.2432 30.4327
O 5.1355 -12.0926 30.4327
H 4.2886 -12.5766 30.4327
H -1.5384 -12.9595 30.4327
O -2.3853 -13.4435 30.4327
O 1.2851 -14.2929 30.4327
H 0.4382 -14.7768 30.4327
H 4.9248 -15.1598 30.4327
O 4.0779 -15.6437 30.4327
O -2.5653 -16.4931 30.4327
H 6.9014 -16.9771 30.4327
H 1.0744 -17.3600 30.4327
O 0.2275 -17.8440 30.4327
O 3.8979 -18.6934 30.4327
H 3.0510 -19.1773 30.4327
H -2.7760 -19.5603 30.4327
O -3.6229 -20.0442 30.4327
O 0.0475 -20.8936 30.4327
H -0.7994 -21.3776 30.4327
H 3.6872 -21.7605 30.4327
O 2.8403 -22.2445 30.4327
O -3.8030 -23.0939 30.4327
H 5.6638 -23.5778 30.4327
H -0.1632 -23.9608 30.4327
O -1.0101 -24.4447 30.4327
O 2.6603 -25.2941 30.4327
H 1.8133 -25.7781 30.4327
H -4.0137 -26.1610 30.4327
O -4.8606 -26.6450 30.4327
O -1.1902 -27.4944 30.4327
H -2.0371 -27.9783 30.4327
H 2.4496 -28.3613 30.4327
O 1.6027 -28.8452 30.4327
O -5.0406 -29.6946 30.4327
H 4.4261 -30.1785 30.4327
H -1.4009 -30.5615 30.4327
O -2.2478 -31.0455 30.4327
O 1.4226 -31.8948 30.4327
H 0.5757 -32.3788 30.4327
H -5.2513 -32.7618 30.4327
