778
XYZ file generated by QuantumATK for match 23
Li 2.4461 1.3338 1.0000
Li 5.7076 1.3338 1.0000
Li 8.9690 1.3338 1.0000
Li 12.2305 1.3338 1.0000
Li 15.4920 1.3338 1.0000
Li 4.0768 4.1583 1.0000
Li 7.3383 4.1583 1.0000
Li 10.5998 4.1583 1.0000
Li 13.8612 4.1583 1.0000
Li 17.1227 4.1583 1.0000
Li 5.7076 6.9828 1.0000
Li 8.9690 6.9828 1.0000
Li 12.2305 6.9828 1.0000
Li 15.4920 6.9828 1.0000
Li 2.4461 6.9828 1.0000
Li 4.0768 9.8073 1.0000
Li 7.3383 9.8073 1.0000
Li 10.5998 9.8073 1.0000
Li 13.8612 9.8073 1.0000
Li 17.1227 9.8073 1.0000
Li 5.7076 12.6318 1.0000
Li 8.9690 12.6318 1.0000
Li 12.2305 12.6318 1.0000
Li 15.4920 12.6318 1.0000
Li 18.7534 12.6318 1.0000
O 0.8154 0.3923 1.6657
O 4.0768 0.3923 1.6657
O 7.3383 0.3923 1.6657
O 10.5998 0.3923 1.6657
O 13.8612 0.3923 1.6657
O 2.4461 3.2168 1.6657
O 5.7076 3.2168 1.6657
O 8.9690 3.2168 1.6657
O 12.2305 3.2168 1.6657
O 15.4920 3.2168 1.6657
O 4.0768 6.0413 1.6657
O 7.3383 6.0413 1.6657
O 10.5998 6.0413 1.6657
O 13.8612 6.0413 1.6657
O 17.1227 6.0413 1.6657
O 5.7076 8.8658 1.6657
O 8.9690 8.8658 1.6657
O 12.2305 8.8658 1.6657
O 15.4920 8.8658 1.6657
O 18.7534 8.8658 1.6657
O 7.3383 11.6903 1.6657
O 10.5998 11.6903 1.6657
O 13.8612 11.6903 1.6657
O 17.1227 11.6903 1.6657
O 4.0768 11.6903 1.6657
Li 4.0768 2.2753 2.3315
Li 7.3383 2.2753 2.3315
Li 10.5998 2.2753 2.3315
Li 13.8612 2.2753 2.3315
Li 0.8154 2.2753 2.3315
Li 2.4461 5.0998 2.3315
Li 5.7076 5.0998 2.3315
Li 8.9690 5.0998 2.3315
Li 12.2305 5.0998 2.3315
Li 15.4920 5.0998 2.3315
Li 4.0768 7.9243 2.3315
Li 7.3383 7.9243 2.3315
Li 10.5998 7.9243 2.3315
Li 13.8612 7.9243 2.3315
Li 17.1227 7.9243 2.3315
Li 5.7076 10.7488 2.3315
Li 8.9690 10.7488 2.3315
Li 12.2305 10.7488 2.3315
Li 15.4920 10.7488 2.3315
Li 18.7534 10.7488 2.3315
Li 7.3383 13.5734 2.3315
Li 10.5998 13.5734 2.3315
Li 13.8612 13.5734 2.3315
Li 17.1227 13.5734 2.3315
Li 20.3842 13.5734 2.3315
Li 0.8154 0.3923 3.6630
Li 4.0768 0.3923 3.6630
Li 7.3383 0.3923 3.6630
Li 10.5998 0.3923 3.6630
Li 13.8612 0.3923 3.6630
Li 2.4461 3.2168 3.6630
Li 5.7076 3.2168 3.6630
Li 8.9690 3.2168 3.6630
Li 12.2305 3.2168 3.6630
Li 15.4920 3.2168 3.6630
Li 4.0768 6.0413 3.6630
Li 7.3383 6.0413 3.6630
Li 10.5998 6.0413 3.6630
Li 13.8612 6.0413 3.6630
Li 17.1227 6.0413 3.6630
Li 5.7076 8.8658 3.6630
Li 8.9690 8.8658 3.6630
Li 12.2305 8.8658 3.6630
Li 15.4920 8.8658 3.6630
Li 18.7534 8.8658 3.6630
Li 7.3383 11.6903 3.6630
Li 10.5998 11.6903 3.6630
Li 13.8612 11.6903 3.6630
Li 17.1227 11.6903 3.6630
Li 4.0768 11.6903 3.6630
O 4.0768 2.2753 4.3287
O 7.3383 2.2753 4.3287
O 10.5998 2.2753 4.3287
O 13.8612 2.2753 4.3287
O 0.8154 2.2753 4.3287
O 2.4461 5.0998 4.3287
O 5.7076 5.0998 4.3287
O 8.9690 5.0998 4.3287
O 12.2305 5.0998 4.3287
O 15.4920 5.0998 4.3287
O 4.0768 7.9243 4.3287
O 7.3383 7.9243 4.3287
O 10.5998 7.9243 4.3287
O 13.8612 7.9243 4.3287
O 17.1227 7.9243 4.3287
O 5.7076 10.7488 4.3287
O 8.9690 10.7488 4.3287
O 12.2305 10.7488 4.3287
O 15.4920 10.7488 4.3287
O 18.7534 10.7488 4.3287
O 7.3383 13.5734 4.3287
O 10.5998 13.5734 4.3287
O 13.8612 13.5734 4.3287
O 17.1227 13.5734 4.3287
O 20.3842 13.5734 4.3287
Li 2.4461 1.3338 4.9945
Li 5.7076 1.3338 4.9945
Li 8.9690 1.3338 4.9945
Li 12.2305 1.3338 4.9945
Li 15.4920 1.3338 4.9945
Li 4.0768 4.1583 4.9945
Li 7.3383 4.1583 4.9945
Li 10.5998 4.1583 4.9945
Li 13.8612 4.1583 4.9945
Li 17.1227 4.1583 4.9945
Li 5.7076 6.9828 4.9945
Li 8.9690 6.9828 4.9945
Li 12.2305 6.9828 4.9945
Li 15.4920 6.9828 4.9945
Li 2.4461 6.9828 4.9945
Li 4.0768 9.8073 4.9945
Li 7.3383 9.8073 4.9945
Li 10.5998 9.8073 4.9945
Li 13.8612 9.8073 4.9945
Li 17.1227 9.8073 4.9945
Li 5.7076 12.6318 4.9945
Li 8.9690 12.6318 4.9945
Li 12.2305 12.6318 4.9945
Li 15.4920 12.6318 4.9945
Li 18.7534 12.6318 4.9945
Li 4.0768 2.2753 6.3260
Li 7.3383 2.2753 6.3260
Li 10.5998 2.2753 6.3260
Li 13.8612 2.2753 6.3260
Li 0.8154 2.2753 6.3260
Li 2.4461 5.0998 6.3260
Li 5.7076 5.0998 6.3260
Li 8.9690 5.0998 6.3260
Li 12.2305 5.0998 6.3260
Li 15.4920 5.0998 6.3260
Li 4.0768 7.9243 6.3260
Li 7.3383 7.9243 6.3260
Li 10.5998 7.9243 6.3260
Li 13.8612 7.9243 6.3260
Li 17.1227 7.9243 6.3260
Li 5.7076 10.7488 6.3260
Li 8.9690 10.7488 6.3260
Li 12.2305 10.7488 6.3260
Li 15.4920 10.7488 6.3260
Li 18.7534 10.7488 6.3260
Li 7.3383 13.5734 6.3260
Li 10.5998 13.5734 6.3260
Li 13.8612 13.5734 6.3260
Li 17.1227 13.5734 6.3260
Li 20.3842 13.5734 6.3260
O 2.4461 1.3338 6.9917
O 5.7076 1.3338 6.9917
O 8.9690 1.3338 6.9917
O 12.2305 1.3338 6.9917
O 15.4920 1.3338 6.9917
O 4.0768 4.1583 6.9917
O 7.3383 4.1583 6.9917
O 10.5998 4.1583 6.9917
O 13.8612 4.1583 6.9917
O 17.1227 4.1583 6.9917
O 5.7076 6.9828 6.9917
O 8.9690 6.9828 6.9917
O 12.2305 6.9828 6.9917
O 15.4920 6.9828 6.9917
O 2.4461 6.9828 6.9917
O 4.0768 9.8073 6.9917
O 7.3383 9.8073 6.9917
O 10.5998 9.8073 6.9917
O 13.8612 9.8073 6.9917
O 17.1227 9.8073 6.9917
O 5.7076 12.6318 6.9917
O 8.9690 12.6318 6.9917
O 12.2305 12.6318 6.9917
O 15.4920 12.6318 6.9917
O 18.7534 12.6318 6.9917
Li 0.8154 0.3923 7.6574
Li 4.0768 0.3923 7.6574
Li 7.3383 0.3923 7.6574
Li 10.5998 0.3923 7.6574
Li 13.8612 0.3923 7.6574
Li 2.4461 3.2168 7.6574
Li 5.7076 3.2168 7.6574
Li 8.9690 3.2168 7.6574
Li 12.2305 3.2168 7.6574
Li 15.4920 3.2168 7.6574
Li 4.0768 6.0413 7.6574
Li 7.3383 6.0413 7.6574
Li 10.5998 6.0413 7.6574
Li 13.8612 6.0413 7.6574
Li 17.1227 6.0413 7.6574
Li 5.7076 8.8658 7.6574
Li 8.9690 8.8658 7.6574
Li 12.2305 8.8658 7.6574
Li 15.4920 8.8658 7.6574
Li 18.7534 8.8658 7.6574
Li 7.3383 11.6903 7.6574
Li 10.5998 11.6903 7.6574
Li 13.8612 11.6903 7.6574
Li 17.1227 11.6903 7.6574
Li 4.0768 11.6903 7.6574
Li 2.4461 1.3338 8.9889
Li 5.7076 1.3338 8.9889
Li 8.9690 1.3338 8.9889
Li 12.2305 1.3338 8.9889
Li 15.4920 1.3338 8.9889
Li 4.0768 4.1583 8.9889
Li 7.3383 4.1583 8.9889
Li 10.5998 4.1583 8.9889
Li 13.8612 4.1583 8.9889
Li 17.1227 4.1583 8.9889
Li 5.7076 6.9828 8.9889
Li 8.9690 6.9828 8.9889
Li 12.2305 6.9828 8.9889
Li 15.4920 6.9828 8.9889
Li 2.4461 6.9828 8.9889
Li 4.0768 9.8073 8.9889
Li 7.3383 9.8073 8.9889
Li 10.5998 9.8073 8.9889
Li 13.8612 9.8073 8.9889
Li 17.1227 9.8073 8.9889
Li 5.7076 12.6318 8.9889
Li 8.9690 12.6318 8.9889
Li 12.2305 12.6318 8.9889
Li 15.4920 12.6318 8.9889
Li 18.7534 12.6318 8.9889
O 0.8154 0.3923 9.6547
O 4.0768 0.3923 9.6547
O 7.3383 0.3923 9.6547
O 10.5998 0.3923 9.6547
O 13.8612 0.3923 9.6547
O 2.4461 3.2168 9.6547
O 5.7076 3.2168 9.6547
O 8.9690 3.2168 9.6547
O 12.2305 3.2168 9.6547
O 15.4920 3.2168 9.6547
O 4.0768 6.0413 9.6547
O 7.3383 6.0413 9.6547
O 10.5998 6.0413 9.6547
O 13.8612 6.0413 9.6547
O 17.1227 6.0413 9.6547
O 5.7076 8.8658 9.6547
O 8.9690 8.8658 9.6547
O 12.2305 8.8658 9.6547
O 15.4920 8.8658 9.6547
O 18.7534 8.8658 9.6547
O 7.3383 11.6903 9.6547
O 10.5998 11.6903 9.6547
O 13.8612 11.6903 9.6547
O 17.1227 11.6903 9.6547
O 4.0768 11.6903 9.6547
Li 4.0768 2.2753 10.3204
Li 7.3383 2.2753 10.3204
Li 10.5998 2.2753 10.3204
Li 13.8612 2.2753 10.3204
Li 0.8154 2.2753 10.3204
Li 2.4461 5.0998 10.3204
Li 5.7076 5.0998 10.3204
Li 8.9690 5.0998 10.3204
Li 12.2305 5.0998 10.3204
Li 15.4920 5.0998 10.3204
Li 4.0768 7.9243 10.3204
Li 7.3383 7.9243 10.3204
Li 10.5998 7.9243 10.3204
Li 13.8612 7.9243 10.3204
Li 17.1227 7.9243 10.3204
Li 5.7076 10.7488 10.3204
Li 8.9690 10.7488 10.3204
Li 12.2305 10.7488 10.3204
Li 15.4920 10.7488 10.3204
Li 18.7534 10.7488 10.3204
Li 7.3383 13.5734 10.3204
Li 10.5998 13.5734 10.3204
Li 13.8612 13.5734 10.3204
Li 17.1227 13.5734 10.3204
Li 20.3842 13.5734 10.3204
Li 0.8154 0.3923 11.6519
Li 4.0768 0.3923 11.6519
Li 7.3383 0.3923 11.6519
Li 10.5998 0.3923 11.6519
Li 13.8612 0.3923 11.6519
Li 2.4461 3.2168 11.6519
Li 5.7076 3.2168 11.6519
Li 8.9690 3.2168 11.6519
Li 12.2305 3.2168 11.6519
Li 15.4920 3.2168 11.6519
Li 4.0768 6.0413 11.6519
Li 7.3383 6.0413 11.6519
Li 10.5998 6.0413 11.6519
Li 13.8612 6.0413 11.6519
Li 17.1227 6.0413 11.6519
Li 5.7076 8.8658 11.6519
Li 8.9690 8.8658 11.6519
Li 12.2305 8.8658 11.6519
Li 15.4920 8.8658 11.6519
Li 18.7534 8.8658 11.6519
Li 7.3383 11.6903 11.6519
Li 10.5998 11.6903 11.6519
Li 13.8612 11.6903 11.6519
Li 17.1227 11.6903 11.6519
Li 4.0768 11.6903 11.6519
O 4.0768 2.2753 12.3176
O 7.3383 2.2753 12.3176
O 10.5998 2.2753 12.3176
O 13.8612 2.2753 12.3176
O 0.8154 2.2753 12.3176
O 2.4461 5.0998 12.3176
O 5.7076 5.0998 12.3176
O 8.9690 5.0998 12.3176
O 12.2305 5.0998 12.3176
O 15.4920 5.0998 12.3176
O 4.0768 7.9243 12.3176
O 7.3383 7.9243 12.3176
O 10.5998 7.9243 12.3176
O 13.8612 7.9243 12.3176
O 17.1227 7.9243 12.3176
O 5.7076 10.7488 12.3176
O 8.9690 10.7488 12.3176
O 12.2305 10.7488 12.3176
O 15.4920 10.7488 12.3176
O 18.7534 10.7488 12.3176
O 7.3383 13.5734 12.3176
O 10.5998 13.5734 12.3176
O 13.8612 13.5734 12.3176
O 17.1227 13.5734 12.3176
O 20.3842 13.5734 12.3176
Li 2.4461 1.3338 12.9834
Li 5.7076 1.3338 12.9834
Li 8.9690 1.3338 12.9834
Li 12.2305 1.3338 12.9834
Li 15.4920 1.3338 12.9834
Li 4.0768 4.1583 12.9834
Li 7.3383 4.1583 12.9834
Li 10.5998 4.1583 12.9834
Li 13.8612 4.1583 12.9834
Li 17.1227 4.1583 12.9834
Li 5.7076 6.9828 12.9834
Li 8.9690 6.9828 12.9834
Li 12.2305 6.9828 12.9834
Li 15.4920 6.9828 12.9834
Li 2.4461 6.9828 12.9834
Li 4.0768 9.8073 12.9834
Li 7.3383 9.8073 12.9834
Li 10.5998 9.8073 12.9834
Li 13.8612 9.8073 12.9834
Li 17.1227 9.8073 12.9834
Li 5.7076 12.6318 12.9834
Li 8.9690 12.6318 12.9834
Li 12.2305 12.6318 12.9834
Li 15.4920 12.6318 12.9834
Li 18.7534 12.6318 12.9834
Li 4.0768 2.2753 14.3149
Li 7.3383 2.2753 14.3149
Li 10.5998 2.2753 14.3149
Li 13.8612 2.2753 14.3149
Li 0.8154 2.2753 14.3149
Li 2.4461 5.0998 14.3149
Li 5.7076 5.0998 14.3149
Li 8.9690 5.0998 14.3149
Li 12.2305 5.0998 14.3149
Li 15.4920 5.0998 14.3149
Li 4.0768 7.9243 14.3149
Li 7.3383 7.9243 14.3149
Li 10.5998 7.9243 14.3149
Li 13.8612 7.9243 14.3149
Li 17.1227 7.9243 14.3149
Li 5.7076 10.7488 14.3149
Li 8.9690 10.7488 14.3149
Li 12.2305 10.7488 14.3149
Li 15.4920 10.7488 14.3149
Li 18.7534 10.7488 14.3149
Li 7.3383 13.5734 14.3149
Li 10.5998 13.5734 14.3149
Li 13.8612 13.5734 14.3149
Li 17.1227 13.5734 14.3149
Li 20.3842 13.5734 14.3149
Li 4.8922 0.3923 16.4569
Li 13.0459 0.3923 16.4569
Li 2.4461 1.1769 16.4569
Li 10.5998 1.1769 16.4569
Li 8.1537 1.9615 16.4569
Li 16.3073 1.9615 16.4569
Li 5.7076 2.7461 16.4569
Li 13.8612 2.7461 16.4569
Li 3.2615 3.5306 16.4569
Li 11.4151 3.5306 16.4569
Li 8.9690 4.3152 16.4569
Li 17.1227 4.3152 16.4569
Li 6.5229 5.0998 16.4569
Li 14.6766 5.0998 16.4569
Li 4.0768 5.8844 16.4569
Li 12.2305 5.8844 16.4569
Li 9.7844 6.6690 16.4569
Li 17.9381 6.6690 16.4569
Li 7.3383 7.4536 16.4569
Li 15.4920 7.4536 16.4569
Li 4.8922 8.2382 16.4569
Li 13.0459 8.2382 16.4569
Li 10.5998 9.0227 16.4569
Li 18.7534 9.0227 16.4569
Li 8.1537 9.8073 16.4569
Li 16.3073 9.8073 16.4569
Li 5.7076 10.5919 16.4569
Li 13.8612 10.5919 16.4569
Li 11.4151 11.3765 16.4569
Li 19.5688 11.3765 16.4569
Li 8.9690 12.1611 16.4569
Li 17.1227 12.1611 16.4569
Li 6.5229 12.9457 16.4569
Li 14.6766 12.9457 16.4569
Li 12.2305 13.7303 16.4569
Li 20.3842 13.7303 16.4569
O 6.5229 1.1769 17.3082
O 14.6766 1.1769 17.3082
O 1.6307 2.7461 17.3082
O 9.7844 2.7461 17.3082
O 4.8922 4.3152 17.3082
O 13.0459 4.3152 17.3082
O 8.1537 5.8844 17.3082
O 16.3073 5.8844 17.3082
O 3.2615 7.4536 17.3082
O 11.4151 7.4536 17.3082
O 6.5229 9.0227 17.3082
O 14.6766 9.0227 17.3082
O 9.7844 10.5919 17.3082
O 17.9381 10.5919 17.3082
O 4.8922 12.1611 17.3082
O 13.0459 12.1611 17.3082
O 8.1537 13.7303 17.3082
O 16.3073 13.7303 17.3082
H 6.5229 1.1769 18.2783
H 14.6766 1.1769 18.2783
H 1.6307 2.7461 18.2783
H 9.7844 2.7461 18.2783
H 4.8922 4.3152 18.2783
H 13.0459 4.3152 18.2783
H 8.1537 5.8844 18.2783
H 16.3073 5.8844 18.2783
H 3.2615 7.4536 18.2783
H 11.4151 7.4536 18.2783
H 6.5229 9.0227 18.2783
H 14.6766 9.0227 18.2783
H 9.7844 10.5919 18.2783
H 17.9381 10.5919 18.2783
H 4.8922 12.1611 18.2783
H 13.0459 12.1611 18.2783
H 8.1537 13.7303 18.2783
H 16.3073 13.7303 18.2783
H 0.8154 0.3923 19.0459
H 8.9690 0.3923 19.0459
H 4.0768 1.9615 19.0459
H 12.2305 1.9615 19.0459
H 7.3383 3.5306 19.0459
H 15.4920 3.5306 19.0459
H 2.4461 5.0998 19.0459
H 10.5998 5.0998 19.0459
H 5.7076 6.6690 19.0459
H 13.8612 6.6690 19.0459
H 8.9690 8.2382 19.0459
H 17.1227 8.2382 19.0459
H 4.0768 9.8073 19.0459
H 12.2305 9.8073 19.0459
H 7.3383 11.3765 19.0459
H 15.4920 11.3765 19.0459
H 10.5998 12.9457 19.0459
H 18.7534 12.9457 19.0459
O 0.8154 0.3923 20.0160
O 8.9690 0.3923 20.0160
O 4.0768 1.9615 20.0160
O 12.2305 1.9615 20.0160
O 7.3383 3.5306 20.0160
O 15.4920 3.5306 20.0160
O 2.4461 5.0998 20.0160
O 10.5998 5.0998 20.0160
O 5.7076 6.6690 20.0160
O 13.8612 6.6690 20.0160
O 8.9690 8.2382 20.0160
O 17.1227 8.2382 20.0160
O 4.0768 9.8073 20.0160
O 12.2305 9.8073 20.0160
O 7.3383 11.3765 20.0160
O 15.4920 11.3765 20.0160
O 10.5998 12.9457 20.0160
O 18.7534 12.9457 20.0160
Li 4.8922 0.3923 20.8673
Li 13.0459 0.3923 20.8673
Li 2.4461 1.1769 20.8673
Li 10.5998 1.1769 20.8673
Li 8.1537 1.9615 20.8673
Li 16.3073 1.9615 20.8673
Li 5.7076 2.7461 20.8673
Li 13.8612 2.7461 20.8673
Li 3.2615 3.5306 20.8673
Li 11.4151 3.5306 20.8673
Li 8.9690 4.3152 20.8673
Li 17.1227 4.3152 20.8673
Li 6.5229 5.0998 20.8673
Li 14.6766 5.0998 20.8673
Li 4.0768 5.8844 20.8673
Li 12.2305 5.8844 20.8673
Li 9.7844 6.6690 20.8673
Li 17.9381 6.6690 20.8673
Li 7.3383 7.4536 20.8673
Li 15.4920 7.4536 20.8673
Li 4.8922 8.2382 20.8673
Li 13.0459 8.2382 20.8673
Li 10.5998 9.0227 20.8673
Li 18.7534 9.0227 20.8673
Li 8.1537 9.8073 20.8673
Li 16.3073 9.8073 20.8673
Li 5.7076 10.5919 20.8673
Li 13.8612 10.5919 20.8673
Li 11.4151 11.3765 20.8673
Li 19.5688 11.3765 20.8673
Li 8.9690 12.1611 20.8673
Li 17.1227 12.1611 20.8673
Li 6.5229 12.9457 20.8673
Li 14.6766 12.9457 20.8673
Li 12.2305 13.7303 20.8673
Li 20.3842 13.7303 20.8673
O 6.5229 1.1769 21.7187
O 14.6766 1.1769 21.7187
O 1.6307 2.7461 21.7187
O 9.7844 2.7461 21.7187
O 4.8922 4.3152 21.7187
O 13.0459 4.3152 21.7187
O 8.1537 5.8844 21.7187
O 16.3073 5.8844 21.7187
O 3.2615 7.4536 21.7187
O 11.4151 7.4536 21.7187
O 6.5229 9.0227 21.7187
O 14.6766 9.0227 21.7187
O 9.7844 10.5919 21.7187
O 17.9381 10.5919 21.7187
O 4.8922 12.1611 21.7187
O 13.0459 12.1611 21.7187
O 8.1537 13.7303 21.7187
O 16.3073 13.7303 21.7187
H 6.5229 1.1769 22.6887
H 14.6766 1.1769 22.6887
H 1.6307 2.7461 22.6887
H 9.7844 2.7461 22.6887
H 4.8922 4.3152 22.6887
H 13.0459 4.3152 22.6887
H 8.1537 5.8844 22.6887
H 16.3073 5.8844 22.6887
H 3.2615 7.4536 22.6887
H 11.4151 7.4536 22.6887
H 6.5229 9.0227 22.6887
H 14.6766 9.0227 22.6887
H 9.7844 10.5919 22.6887
H 17.9381 10.5919 22.6887
H 4.8922 12.1611 22.6887
H 13.0459 12.1611 22.6887
H 8.1537 13.7303 22.6887
H 16.3073 13.7303 22.6887
H 0.8154 0.3923 23.4564
H 8.9690 0.3923 23.4564
H 4.0768 1.9615 23.4564
H 12.2305 1.9615 23.4564
H 7.3383 3.5306 23.4564
H 15.4920 3.5306 23.4564
H 2.4461 5.0998 23.4564
H 10.5998 5.0998 23.4564
H 5.7076 6.6690 23.4564
H 13.8612 6.6690 23.4564
H 8.9690 8.2382 23.4564
H 17.1227 8.2382 23.4564
H 4.0768 9.8073 23.4564
H 12.2305 9.8073 23.4564
H 7.3383 11.3765 23.4564
H 15.4920 11.3765 23.4564
H 10.5998 12.9457 23.4564
H 18.7534 12.9457 23.4564
O 0.8154 0.3923 24.4265
O 8.9690 0.3923 24.4265
O 4.0768 1.9615 24.4265
O 12.2305 1.9615 24.4265
O 7.3383 3.5306 24.4265
O 15.4920 3.5306 24.4265
O 2.4461 5.0998 24.4265
O 10.5998 5.0998 24.4265
O 5.7076 6.6690 24.4265
O 13.8612 6.6690 24.4265
O 8.9690 8.2382 24.4265
O 17.1227 8.2382 24.4265
O 4.0768 9.8073 24.4265
O 12.2305 9.8073 24.4265
O 7.3383 11.3765 24.4265
O 15.4920 11.3765 24.4265
O 10.5998 12.9457 24.4265
O 18.7534 12.9457 24.4265
Li 4.8922 0.3923 25.2778
Li 13.0459 0.3923 25.2778
Li 2.4461 1.1769 25.2778
Li 10.5998 1.1769 25.2778
Li 8.1537 1.9615 25.2778
Li 16.3073 1.9615 25.2778
Li 5.7076 2.7461 25.2778
Li 13.8612 2.7461 25.2778
Li 3.2615 3.5306 25.2778
Li 11.4151 3.5306 25.2778
Li 8.9690 4.3152 25.2778
Li 17.1227 4.3152 25.2778
Li 6.5229 5.0998 25.2778
Li 14.6766 5.0998 25.2778
Li 4.0768 5.8844 25.2778
Li 12.2305 5.8844 25.2778
Li 9.7844 6.6690 25.2778
Li 17.9381 6.6690 25.2778
Li 7.3383 7.4536 25.2778
Li 15.4920 7.4536 25.2778
Li 4.8922 8.2382 25.2778
Li 13.0459 8.2382 25.2778
Li 10.5998 9.0227 25.2778
Li 18.7534 9.0227 25.2778
Li 8.1537 9.8073 25.2778
Li 16.3073 9.8073 25.2778
Li 5.7076 10.5919 25.2778
Li 13.8612 10.5919 25.2778
Li 11.4151 11.3765 25.2778
Li 19.5688 11.3765 25.2778
Li 8.9690 12.1611 25.2778
Li 17.1227 12.1611 25.2778
Li 6.5229 12.9457 25.2778
Li 14.6766 12.9457 25.2778
Li 12.2305 13.7303 25.2778
Li 20.3842 13.7303 25.2778
O 6.5229 1.1769 26.1291
O 14.6766 1.1769 26.1291
O 1.6307 2.7461 26.1291
O 9.7844 2.7461 26.1291
O 4.8922 4.3152 26.1291
O 13.0459 4.3152 26.1291
O 8.1537 5.8844 26.1291
O 16.3073 5.8844 26.1291
O 3.2615 7.4536 26.1291
O 11.4151 7.4536 26.1291
O 6.5229 9.0227 26.1291
O 14.6766 9.0227 26.1291
O 9.7844 10.5919 26.1291
O 17.9381 10.5919 26.1291
O 4.8922 12.1611 26.1291
O 13.0459 12.1611 26.1291
O 8.1537 13.7303 26.1291
O 16.3073 13.7303 26.1291
H 6.5229 1.1769 27.0992
H 14.6766 1.1769 27.0992
H 1.6307 2.7461 27.0992
H 9.7844 2.7461 27.0992
H 4.8922 4.3152 27.0992
H 13.0459 4.3152 27.0992
H 8.1537 5.8844 27.0992
H 16.3073 5.8844 27.0992
H 3.2615 7.4536 27.0992
H 11.4151 7.4536 27.0992
H 6.5229 9.0227 27.0992
H 14.6766 9.0227 27.0992
H 9.7844 10.5919 27.0992
H 17.9381 10.5919 27.0992
H 4.8922 12.1611 27.0992
H 13.0459 12.1611 27.0992
H 8.1537 13.7303 27.0992
H 16.3073 13.7303 27.0992
H 0.8154 0.3923 27.8669
H 8.9690 0.3923 27.8669
H 4.0768 1.9615 27.8669
H 12.2305 1.9615 27.8669
H 7.3383 3.5306 27.8669
H 15.4920 3.5306 27.8669
H 2.4461 5.0998 27.8669
H 10.5998 5.0998 27.8669
H 5.7076 6.6690 27.8669
H 13.8612 6.6690 27.8669
H 8.9690 8.2382 27.8669
H 17.1227 8.2382 27.8669
H 4.0768 9.8073 27.8669
H 12.2305 9.8073 27.8669
H 7.3383 11.3765 27.8669
H 15.4920 11.3765 27.8669
H 10.5998 12.9457 27.8669
H 18.7534 12.9457 27.8669
O 0.8154 0.3923 28.8369
O 8.9690 0.3923 28.8369
O 4.0768 1.9615 28.8369
O 12.2305 1.9615 28.8369
O 7.3383 3.5306 28.8369
O 15.4920 3.5306 28.8369
O 2.4461 5.0998 28.8369
O 10.5998 5.0998 28.8369
O 5.7076 6.6690 28.8369
O 13.8612 6.6690 28.8369
O 8.9690 8.2382 28.8369
O 17.1227 8.2382 28.8369
O 4.0768 9.8073 28.8369
O 12.2305 9.8073 28.8369
O 7.3383 11.3765 28.8369
O 15.4920 11.3765 28.8369
O 10.5998 12.9457 28.8369
O 18.7534 12.9457 28.8369
Li 4.8922 0.3923 29.6883
Li 13.0459 0.3923 29.6883
Li 2.4461 1.1769 29.6883
Li 10.5998 1.1769 29.6883
Li 8.1537 1.9615 29.6883
Li 16.3073 1.9615 29.6883
Li 5.7076 2.7461 29.6883
Li 13.8612 2.7461 29.6883
Li 3.2615 3.5306 29.6883
Li 11.4151 3.5306 29.6883
Li 8.9690 4.3152 29.6883
Li 17.1227 4.3152 29.6883
Li 6.5229 5.0998 29.6883
Li 14.6766 5.0998 29.6883
Li 4.0768 5.8844 29.6883
Li 12.2305 5.8844 29.6883
Li 9.7844 6.6690 29.6883
Li 17.9381 6.6690 29.6883
Li 7.3383 7.4536 29.6883
Li 15.4920 7.4536 29.6883
Li 4.8922 8.2382 29.6883
Li 13.0459 8.2382 29.6883
Li 10.5998 9.0227 29.6883
Li 18.7534 9.0227 29.6883
Li 8.1537 9.8073 29.6883
Li 16.3073 9.8073 29.6883
Li 5.7076 10.5919 29.6883
Li 13.8612 10.5919 29.6883
Li 11.4151 11.3765 29.6883
Li 19.5688 11.3765 29.6883
Li 8.9690 12.1611 29.6883
Li 17.1227 12.1611 29.6883
Li 6.5229 12.9457 29.6883
Li 14.6766 12.9457 29.6883
Li 12.2305 13.7303 29.6883
Li 20.3842 13.7303 29.6883
O 6.5229 1.1769 30.5396
O 14.6766 1.1769 30.5396
O 1.6307 2.7461 30.5396
O 9.7844 2.7461 30.5396
O 4.8922 4.3152 30.5396
O 13.0459 4.3152 30.5396
O 8.1537 5.8844 30.5396
O 16.3073 5.8844 30.5396
O 3.2615 7.4536 30.5396
O 11.4151 7.4536 30.5396
O 6.5229 9.0227 30.5396
O 14.6766 9.0227 30.5396
O 9.7844 10.5919 30.5396
O 17.9381 10.5919 30.5396
O 4.8922 12.1611 30.5396
O 13.0459 12.1611 30.5396
O 8.1537 13.7303 30.5396
O 16.3073 13.7303 30.5396
