614
XYZ file generated by QuantumATK for match 10
Li 2.3894 1.1928 1.0000
Li 5.6509 1.1928 1.0000
Li 8.9124 1.1928 1.0000
Li 12.1738 1.1928 1.0000
Li 4.0202 4.0173 1.0000
Li 7.2816 4.0173 1.0000
Li 10.5431 4.0173 1.0000
Li 13.8046 4.0173 1.0000
Li 5.6509 6.8418 1.0000
Li 8.9124 6.8418 1.0000
Li 12.1738 6.8418 1.0000
Li 15.4353 6.8418 1.0000
Li 7.2816 9.6663 1.0000
Li 10.5431 9.6663 1.0000
Li 13.8046 9.6663 1.0000
Li 17.0660 9.6663 1.0000
Li 8.9124 12.4908 1.0000
Li 12.1738 12.4908 1.0000
Li 15.4353 12.4908 1.0000
Li 18.6968 12.4908 1.0000
O 0.7587 0.2513 1.6657
O 4.0202 0.2513 1.6657
O 7.2816 0.2513 1.6657
O 10.5431 0.2513 1.6657
O 2.3894 3.0758 1.6657
O 5.6509 3.0758 1.6657
O 8.9124 3.0758 1.6657
O 12.1738 3.0758 1.6657
O 4.0202 5.9003 1.6657
O 7.2816 5.9003 1.6657
O 10.5431 5.9003 1.6657
O 13.8046 5.9003 1.6657
O 5.6509 8.7248 1.6657
O 8.9124 8.7248 1.6657
O 12.1738 8.7248 1.6657
O 15.4353 8.7248 1.6657
O 7.2816 11.5493 1.6657
O 10.5431 11.5493 1.6657
O 13.8046 11.5493 1.6657
O 17.0660 11.5493 1.6657
Li 4.0202 2.1343 2.3315
Li 7.2816 2.1343 2.3315
Li 10.5431 2.1343 2.3315
Li 13.8046 2.1343 2.3315
Li 5.6509 4.9588 2.3315
Li 8.9124 4.9588 2.3315
Li 12.1738 4.9588 2.3315
Li 15.4353 4.9588 2.3315
Li 7.2816 7.7833 2.3315
Li 10.5431 7.7833 2.3315
Li 13.8046 7.7833 2.3315
Li 17.0660 7.7833 2.3315
Li 8.9124 10.6078 2.3315
Li 12.1738 10.6078 2.3315
Li 15.4353 10.6078 2.3315
Li 18.6968 10.6078 2.3315
Li 10.5431 13.4323 2.3315
Li 13.8046 13.4323 2.3315
Li 17.0660 13.4323 2.3315
Li 20.3275 13.4323 2.3315
Li 0.7587 0.2513 3.6630
Li 4.0202 0.2513 3.6630
Li 7.2816 0.2513 3.6630
Li 10.5431 0.2513 3.6630
Li 2.3894 3.0758 3.6630
Li 5.6509 3.0758 3.6630
Li 8.9124 3.0758 3.6630
Li 12.1738 3.0758 3.6630
Li 4.0202 5.9003 3.6630
Li 7.2816 5.9003 3.6630
Li 10.5431 5.9003 3.6630
Li 13.8046 5.9003 3.6630
Li 5.6509 8.7248 3.6630
Li 8.9124 8.7248 3.6630
Li 12.1738 8.7248 3.6630
Li 15.4353 8.7248 3.6630
Li 7.2816 11.5493 3.6630
Li 10.5431 11.5493 3.6630
Li 13.8046 11.5493 3.6630
Li 17.0660 11.5493 3.6630
O 4.0202 2.1343 4.3287
O 7.2816 2.1343 4.3287
O 10.5431 2.1343 4.3287
O 13.8046 2.1343 4.3287
O 5.6509 4.9588 4.3287
O 8.9124 4.9588 4.3287
O 12.1738 4.9588 4.3287
O 15.4353 4.9588 4.3287
O 7.2816 7.7833 4.3287
O 10.5431 7.7833 4.3287
O 13.8046 7.7833 4.3287
O 17.0660 7.7833 4.3287
O 8.9124 10.6078 4.3287
O 12.1738 10.6078 4.3287
O 15.4353 10.6078 4.3287
O 18.6968 10.6078 4.3287
O 10.5431 13.4323 4.3287
O 13.8046 13.4323 4.3287
O 17.0660 13.4323 4.3287
O 20.3275 13.4323 4.3287
Li 2.3894 1.1928 4.9945
Li 5.6509 1.1928 4.9945
Li 8.9124 1.1928 4.9945
Li 12.1738 1.1928 4.9945
Li 4.0202 4.0173 4.9945
Li 7.2816 4.0173 4.9945
Li 10.5431 4.0173 4.9945
Li 13.8046 4.0173 4.9945
Li 5.6509 6.8418 4.9945
Li 8.9124 6.8418 4.9945
Li 12.1738 6.8418 4.9945
Li 15.4353 6.8418 4.9945
Li 7.2816 9.6663 4.9945
Li 10.5431 9.6663 4.9945
Li 13.8046 9.6663 4.9945
Li 17.0660 9.6663 4.9945
Li 8.9124 12.4908 4.9945
Li 12.1738 12.4908 4.9945
Li 15.4353 12.4908 4.9945
Li 18.6968 12.4908 4.9945
Li 4.0202 2.1343 6.3260
Li 7.2816 2.1343 6.3260
Li 10.5431 2.1343 6.3260
Li 13.8046 2.1343 6.3260
Li 5.6509 4.9588 6.3260
Li 8.9124 4.9588 6.3260
Li 12.1738 4.9588 6.3260
Li 15.4353 4.9588 6.3260
Li 7.2816 7.7833 6.3260
Li 10.5431 7.7833 6.3260
Li 13.8046 7.7833 6.3260
Li 17.0660 7.7833 6.3260
Li 8.9124 10.6078 6.3260
Li 12.1738 10.6078 6.3260
Li 15.4353 10.6078 6.3260
Li 18.6968 10.6078 6.3260
Li 10.5431 13.4323 6.3260
Li 13.8046 13.4323 6.3260
Li 17.0660 13.4323 6.3260
Li 20.3275 13.4323 6.3260
O 2.3894 1.1928 6.9917
O 5.6509 1.1928 6.9917
O 8.9124 1.1928 6.9917
O 12.1738 1.1928 6.9917
O 4.0202 4.0173 6.9917
O 7.2816 4.0173 6.9917
O 10.5431 4.0173 6.9917
O 13.8046 4.0173 6.9917
O 5.6509 6.8418 6.9917
O 8.9124 6.8418 6.9917
O 12.1738 6.8418 6.9917
O 15.4353 6.8418 6.9917
O 7.2816 9.6663 6.9917
O 10.5431 9.6663 6.9917
O 13.8046 9.6663 6.9917
O 17.0660 9.6663 6.9917
O 8.9124 12.4908 6.9917
O 12.1738 12.4908 6.9917
O 15.4353 12.4908 6.9917
O 18.6968 12.4908 6.9917
Li 0.7587 0.2513 7.6574
Li 4.0202 0.2513 7.6574
Li 7.2816 0.2513 7.6574
Li 10.5431 0.2513 7.6574
Li 2.3894 3.0758 7.6574
Li 5.6509 3.0758 7.6574
Li 8.9124 3.0758 7.6574
Li 12.1738 3.0758 7.6574
Li 4.0202 5.9003 7.6574
Li 7.2816 5.9003 7.6574
Li 10.5431 5.9003 7.6574
Li 13.8046 5.9003 7.6574
Li 5.6509 8.7248 7.6574
Li 8.9124 8.7248 7.6574
Li 12.1738 8.7248 7.6574
Li 15.4353 8.7248 7.6574
Li 7.2816 11.5493 7.6574
Li 10.5431 11.5493 7.6574
Li 13.8046 11.5493 7.6574
Li 17.0660 11.5493 7.6574
Li 2.3894 1.1928 8.9889
Li 5.6509 1.1928 8.9889
Li 8.9124 1.1928 8.9889
Li 12.1738 1.1928 8.9889
Li 4.0202 4.0173 8.9889
Li 7.2816 4.0173 8.9889
Li 10.5431 4.0173 8.9889
Li 13.8046 4.0173 8.9889
Li 5.6509 6.8418 8.9889
Li 8.9124 6.8418 8.9889
Li 12.1738 6.8418 8.9889
Li 15.4353 6.8418 8.9889
Li 7.2816 9.6663 8.9889
Li 10.5431 9.6663 8.9889
Li 13.8046 9.6663 8.9889
Li 17.0660 9.6663 8.9889
Li 8.9124 12.4908 8.9889
Li 12.1738 12.4908 8.9889
Li 15.4353 12.4908 8.9889
Li 18.6968 12.4908 8.9889
O 0.7587 0.2513 9.6547
O 4.0202 0.2513 9.6547
O 7.2816 0.2513 9.6547
O 10.5431 0.2513 9.6547
O 2.3894 3.0758 9.6547
O 5.6509 3.0758 9.6547
O 8.9124 3.0758 9.6547
O 12.1738 3.0758 9.6547
O 4.0202 5.9003 9.6547
O 7.2816 5.9003 9.6547
O 10.5431 5.9003 9.6547
O 13.8046 5.9003 9.6547
O 5.6509 8.7248 9.6547
O 8.9124 8.7248 9.6547
O 12.1738 8.7248 9.6547
O 15.4353 8.7248 9.6547
O 7.2816 11.5493 9.6547
O 10.5431 11.5493 9.6547
O 13.8046 11.5493 9.6547
O 17.0660 11.5493 9.6547
Li 4.0202 2.1343 10.3204
Li 7.2816 2.1343 10.3204
Li 10.5431 2.1343 10.3204
Li 13.8046 2.1343 10.3204
Li 5.6509 4.9588 10.3204
Li 8.9124 4.9588 10.3204
Li 12.1738 4.9588 10.3204
Li 15.4353 4.9588 10.3204
Li 7.2816 7.7833 10.3204
Li 10.5431 7.7833 10.3204
Li 13.8046 7.7833 10.3204
Li 17.0660 7.7833 10.3204
Li 8.9124 10.6078 10.3204
Li 12.1738 10.6078 10.3204
Li 15.4353 10.6078 10.3204
Li 18.6968 10.6078 10.3204
Li 10.5431 13.4323 10.3204
Li 13.8046 13.4323 10.3204
Li 17.0660 13.4323 10.3204
Li 20.3275 13.4323 10.3204
Li 0.7587 0.2513 11.6519
Li 4.0202 0.2513 11.6519
Li 7.2816 0.2513 11.6519
Li 10.5431 0.2513 11.6519
Li 2.3894 3.0758 11.6519
Li 5.6509 3.0758 11.6519
Li 8.9124 3.0758 11.6519
Li 12.1738 3.0758 11.6519
Li 4.0202 5.9003 11.6519
Li 7.2816 5.9003 11.6519
Li 10.5431 5.9003 11.6519
Li 13.8046 5.9003 11.6519
Li 5.6509 8.7248 11.6519
Li 8.9124 8.7248 11.6519
Li 12.1738 8.7248 11.6519
Li 15.4353 8.7248 11.6519
Li 7.2816 11.5493 11.6519
Li 10.5431 11.5493 11.6519
Li 13.8046 11.5493 11.6519
Li 17.0660 11.5493 11.6519
O 4.0202 2.1343 12.3176
O 7.2816 2.1343 12.3176
O 10.5431 2.1343 12.3176
O 13.8046 2.1343 12.3176
O 5.6509 4.9588 12.3176
O 8.9124 4.9588 12.3176
O 12.1738 4.9588 12.3176
O 15.4353 4.9588 12.3176
O 7.2816 7.7833 12.3176
O 10.5431 7.7833 12.3176
O 13.8046 7.7833 12.3176
O 17.0660 7.7833 12.3176
O 8.9124 10.6078 12.3176
O 12.1738 10.6078 12.3176
O 15.4353 10.6078 12.3176
O 18.6968 10.6078 12.3176
O 10.5431 13.4323 12.3176
O 13.8046 13.4323 12.3176
O 17.0660 13.4323 12.3176
O 20.3275 13.4323 12.3176
Li 2.3894 1.1928 12.9834
Li 5.6509 1.1928 12.9834
Li 8.9124 1.1928 12.9834
Li 12.1738 1.1928 12.9834
Li 4.0202 4.0173 12.9834
Li 7.2816 4.0173 12.9834
Li 10.5431 4.0173 12.9834
Li 13.8046 4.0173 12.9834
Li 5.6509 6.8418 12.9834
Li 8.9124 6.8418 12.9834
Li 12.1738 6.8418 12.9834
Li 15.4353 6.8418 12.9834
Li 7.2816 9.6663 12.9834
Li 10.5431 9.6663 12.9834
Li 13.8046 9.6663 12.9834
Li 17.0660 9.6663 12.9834
Li 8.9124 12.4908 12.9834
Li 12.1738 12.4908 12.9834
Li 15.4353 12.4908 12.9834
Li 18.6968 12.4908 12.9834
Li 4.0202 2.1343 14.3149
Li 7.2816 2.1343 14.3149
Li 10.5431 2.1343 14.3149
Li 13.8046 2.1343 14.3149
Li 5.6509 4.9588 14.3149
Li 8.9124 4.9588 14.3149
Li 12.1738 4.9588 14.3149
Li 15.4353 4.9588 14.3149
Li 7.2816 7.7833 14.3149
Li 10.5431 7.7833 14.3149
Li 13.8046 7.7833 14.3149
Li 17.0660 7.7833 14.3149
Li 8.9124 10.6078 14.3149
Li 12.1738 10.6078 14.3149
Li 15.4353 10.6078 14.3149
Li 18.6968 10.6078 14.3149
Li 10.5431 13.4323 14.3149
Li 13.8046 13.4323 14.3149
Li 17.0660 13.4323 14.3149
Li 20.3275 13.4323 14.3149
Li 7.2785 0.2531 16.4569
Li 4.7741 0.7575 16.4569
Li 2.2698 1.2618 16.4569
Li 12.8113 1.7662 16.4569
Li 10.3070 2.2706 16.4569
Li 7.8027 2.7750 16.4569
Li 5.2983 3.2794 16.4569
Li 2.7940 3.7837 16.4569
Li 13.3355 4.2881 16.4569
Li 10.8312 4.7925 16.4569
Li 8.3268 5.2969 16.4569
Li 5.8225 5.8012 16.4569
Li 16.3640 6.3056 16.4569
Li 13.8597 6.8100 16.4569
Li 11.3553 7.3144 16.4569
Li 8.8510 7.8188 16.4569
Li 6.3466 8.3231 16.4569
Li 16.8882 8.8275 16.4569
Li 14.3838 9.3319 16.4569
Li 11.8795 9.8363 16.4569
Li 9.3751 10.3406 16.4569
Li 6.8708 10.8450 16.4569
Li 17.4123 11.3494 16.4569
Li 14.9080 11.8538 16.4569
Li 12.4037 12.3581 16.4569
Li 9.8993 12.8625 16.4569
Li 20.4408 13.3669 16.4569
Li 17.9365 13.8713 16.4569
O 11.2971 0.7575 17.3082
O 6.2884 1.7662 17.3082
O 14.3256 2.7750 17.3082
O 9.3169 3.7837 17.3082
O 4.3082 4.7925 17.3082
O 12.3454 5.8012 17.3082
O 7.3367 6.8100 17.3082
O 15.3739 7.8188 17.3082
O 10.3652 8.8275 17.3082
O 18.4024 9.8363 17.3082
O 13.3937 10.8450 17.3082
O 8.3851 11.8538 17.3082
O 16.4222 12.8625 17.3082
O 11.4136 13.8713 17.3082
H 11.2971 0.7575 18.2783
H 6.2884 1.7662 18.2783
H 14.3256 2.7750 18.2783
H 9.3169 3.7837 18.2783
H 4.3082 4.7925 18.2783
H 12.3454 5.8012 18.2783
H 7.3367 6.8100 18.2783
H 15.3739 7.8188 18.2783
H 10.3652 8.8275 18.2783
H 18.4024 9.8363 18.2783
H 13.3937 10.8450 18.2783
H 8.3851 11.8538 18.2783
H 16.4222 12.8625 18.2783
H 11.4136 13.8713 18.2783
H 0.7556 0.2531 19.0459
H 8.7927 1.2618 19.0459
H 3.7841 2.2706 19.0459
H 11.8212 3.2794 19.0459
H 6.8126 4.2881 19.0459
H 14.8498 5.2969 19.0459
H 9.8411 6.3056 19.0459
H 4.8324 7.3144 19.0459
H 12.8696 8.3231 19.0459
H 7.8609 9.3319 19.0459
H 15.8981 10.3406 19.0459
H 10.8894 11.3494 19.0459
H 18.9266 12.3581 19.0459
H 13.9179 13.3669 19.0459
O 0.7556 0.2531 20.0160
O 8.7927 1.2618 20.0160
O 3.7841 2.2706 20.0160
O 11.8212 3.2794 20.0160
O 6.8126 4.2881 20.0160
O 14.8498 5.2969 20.0160
O 9.8411 6.3056 20.0160
O 4.8324 7.3144 20.0160
O 12.8696 8.3231 20.0160
O 7.8609 9.3319 20.0160
O 15.8981 10.3406 20.0160
O 10.8894 11.3494 20.0160
O 18.9266 12.3581 20.0160
O 13.9179 13.3669 20.0160
Li 7.2785 0.2531 20.8673
Li 4.7741 0.7575 20.8673
Li 2.2698 1.2618 20.8673
Li 12.8113 1.7662 20.8673
Li 10.3070 2.2706 20.8673
Li 7.8027 2.7750 20.8673
Li 5.2983 3.2794 20.8673
Li 2.7940 3.7837 20.8673
Li 13.3355 4.2881 20.8673
Li 10.8312 4.7925 20.8673
Li 8.3268 5.2969 20.8673
Li 5.8225 5.8012 20.8673
Li 16.3640 6.3056 20.8673
Li 13.8597 6.8100 20.8673
Li 11.3553 7.3144 20.8673
Li 8.8510 7.8188 20.8673
Li 6.3466 8.3231 20.8673
Li 16.8882 8.8275 20.8673
Li 14.3838 9.3319 20.8673
Li 11.8795 9.8363 20.8673
Li 9.3751 10.3406 20.8673
Li 6.8708 10.8450 20.8673
Li 17.4123 11.3494 20.8673
Li 14.9080 11.8538 20.8673
Li 12.4037 12.3581 20.8673
Li 9.8993 12.8625 20.8673
Li 20.4408 13.3669 20.8673
Li 17.9365 13.8713 20.8673
O 11.2971 0.7575 21.7186
O 6.2884 1.7662 21.7186
O 14.3256 2.7750 21.7186
O 9.3169 3.7837 21.7186
O 4.3082 4.7925 21.7186
O 12.3454 5.8012 21.7186
O 7.3367 6.8100 21.7186
O 15.3739 7.8188 21.7186
O 10.3652 8.8275 21.7186
O 18.4024 9.8363 21.7186
O 13.3937 10.8450 21.7186
O 8.3851 11.8538 21.7186
O 16.4222 12.8625 21.7186
O 11.4136 13.8713 21.7186
H 11.2971 0.7575 22.6887
H 6.2884 1.7662 22.6887
H 14.3256 2.7750 22.6887
H 9.3169 3.7837 22.6887
H 4.3082 4.7925 22.6887
H 12.3454 5.8012 22.6887
H 7.3367 6.8100 22.6887
H 15.3739 7.8188 22.6887
H 10.3652 8.8275 22.6887
H 18.4024 9.8363 22.6887
H 13.3937 10.8450 22.6887
H 8.3851 11.8538 22.6887
H 16.4222 12.8625 22.6887
H 11.4136 13.8713 22.6887
H 0.7556 0.2531 23.4564
H 8.7927 1.2618 23.4564
H 3.7841 2.2706 23.4564
H 11.8212 3.2794 23.4564
H 6.8126 4.2881 23.4564
H 14.8498 5.2969 23.4564
H 9.8411 6.3056 23.4564
H 4.8324 7.3144 23.4564
H 12.8696 8.3231 23.4564
H 7.8609 9.3319 23.4564
H 15.8981 10.3406 23.4564
H 10.8894 11.3494 23.4564
H 18.9266 12.3581 23.4564
H 13.9179 13.3669 23.4564
O 0.7556 0.2531 24.4265
O 8.7927 1.2618 24.4265
O 3.7841 2.2706 24.4265
O 11.8212 3.2794 24.4265
O 6.8126 4.2881 24.4265
O 14.8498 5.2969 24.4265
O 9.8411 6.3056 24.4265
O 4.8324 7.3144 24.4265
O 12.8696 8.3231 24.4265
O 7.8609 9.3319 24.4265
O 15.8981 10.3406 24.4265
O 10.8894 11.3494 24.4265
O 18.9266 12.3581 24.4265
O 13.9179 13.3669 24.4265
Li 7.2785 0.2531 25.2778
Li 4.7741 0.7575 25.2778
Li 2.2698 1.2618 25.2778
Li 12.8113 1.7662 25.2778
Li 10.3070 2.2706 25.2778
Li 7.8027 2.7750 25.2778
Li 5.2983 3.2794 25.2778
Li 2.7940 3.7837 25.2778
Li 13.3355 4.2881 25.2778
Li 10.8312 4.7925 25.2778
Li 8.3268 5.2969 25.2778
Li 5.8225 5.8012 25.2778
Li 16.3640 6.3056 25.2778
Li 13.8597 6.8100 25.2778
Li 11.3553 7.3144 25.2778
Li 8.8510 7.8188 25.2778
Li 6.3466 8.3231 25.2778
Li 16.8882 8.8275 25.2778
Li 14.3838 9.3319 25.2778
Li 11.8795 9.8363 25.2778
Li 9.3751 10.3406 25.2778
Li 6.8708 10.8450 25.2778
Li 17.4123 11.3494 25.2778
Li 14.9080 11.8538 25.2778
Li 12.4037 12.3581 25.2778
Li 9.8993 12.8625 25.2778
Li 20.4408 13.3669 25.2778
Li 17.9365 13.8713 25.2778
O 11.2971 0.7575 26.1291
O 6.2884 1.7662 26.1291
O 14.3256 2.7750 26.1291
O 9.3169 3.7837 26.1291
O 4.3082 4.7925 26.1291
O 12.3454 5.8012 26.1291
O 7.3367 6.8100 26.1291
O 15.3739 7.8188 26.1291
O 10.3652 8.8275 26.1291
O 18.4024 9.8363 26.1291
O 13.3937 10.8450 26.1291
O 8.3851 11.8538 26.1291
O 16.4222 12.8625 26.1291
O 11.4136 13.8713 26.1291
H 11.2971 0.7575 27.0992
H 6.2884 1.7662 27.0992
H 14.3256 2.7750 27.0992
H 9.3169 3.7837 27.0992
H 4.3082 4.7925 27.0992
H 12.3454 5.8012 27.0992
H 7.3367 6.8100 27.0992
H 15.3739 7.8188 27.0992
H 10.3652 8.8275 27.0992
H 18.4024 9.8363 27.0992
H 13.3937 10.8450 27.0992
H 8.3851 11.8538 27.0992
H 16.4222 12.8625 27.0992
H 11.4136 13.8713 27.0992
H 0.7556 0.2531 27.8669
H 8.7927 1.2618 27.8669
H 3.7841 2.2706 27.8669
H 11.8212 3.2794 27.8669
H 6.8126 4.2881 27.8669
H 14.8498 5.2969 27.8669
H 9.8411 6.3056 27.8669
H 4.8324 7.3144 27.8669
H 12.8696 8.3231 27.8669
H 7.8609 9.3319 27.8669
H 15.8981 10.3406 27.8669
H 10.8894 11.3494 27.8669
H 18.9266 12.3581 27.8669
H 13.9179 13.3669 27.8669
O 0.7556 0.2531 28.8369
O 8.7927 1.2618 28.8369
O 3.7841 2.2706 28.8369
O 11.8212 3.2794 28.8369
O 6.8126 4.2881 28.8369
O 14.8498 5.2969 28.8369
O 9.8411 6.3056 28.8369
O 4.8324 7.3144 28.8369
O 12.8696 8.3231 28.8369
O 7.8609 9.3319 28.8369
O 15.8981 10.3406 28.8369
O 10.8894 11.3494 28.8369
O 18.9266 12.3581 28.8369
O 13.9179 13.3669 28.8369
Li 7.2785 0.2531 29.6883
Li 4.7741 0.7575 29.6883
Li 2.2698 1.2618 29.6883
Li 12.8113 1.7662 29.6883
Li 10.3070 2.2706 29.6883
Li 7.8027 2.7750 29.6883
Li 5.2983 3.2794 29.6883
Li 2.7940 3.7837 29.6883
Li 13.3355 4.2881 29.6883
Li 10.8312 4.7925 29.6883
Li 8.3268 5.2969 29.6883
Li 5.8225 5.8012 29.6883
Li 16.3640 6.3056 29.6883
Li 13.8597 6.8100 29.6883
Li 11.3553 7.3144 29.6883
Li 8.8510 7.8188 29.6883
Li 6.3466 8.3231 29.6883
Li 16.8882 8.8275 29.6883
Li 14.3838 9.3319 29.6883
Li 11.8795 9.8363 29.6883
Li 9.3751 10.3406 29.6883
Li 6.8708 10.8450 29.6883
Li 17.4123 11.3494 29.6883
Li 14.9080 11.8538 29.6883
Li 12.4037 12.3581 29.6883
Li 9.8993 12.8625 29.6883
Li 20.4408 13.3669 29.6883
Li 17.9365 13.8713 29.6883
O 11.2971 0.7575 30.5396
O 6.2884 1.7662 30.5396
O 14.3256 2.7750 30.5396
O 9.3169 3.7837 30.5396
O 4.3082 4.7925 30.5396
O 12.3454 5.8012 30.5396
O 7.3367 6.8100 30.5396
O 15.3739 7.8188 30.5396
O 10.3652 8.8275 30.5396
O 18.4024 9.8363 30.5396
O 13.3937 10.8450 30.5396
O 8.3851 11.8538 30.5396
O 16.4222 12.8625 30.5396
O 11.4136 13.8713 30.5396
