487
XYZ file generated by QuantumATK for match 31
Li 1.6391 1.1934 1.0000
Li 4.9006 1.1934 1.0000
Li 8.1621 1.1934 1.0000
Li 11.4235 1.1934 1.0000
Li 0.0084 4.0180 1.0000
Li 3.2699 4.0180 1.0000
Li 6.5313 4.0180 1.0000
Li 9.7928 4.0180 1.0000
Li -1.6223 6.8425 1.0000
Li 1.6391 6.8425 1.0000
Li 4.9006 6.8425 1.0000
Li 8.1621 6.8425 1.0000
Li 0.0084 9.6670 1.0000
Li 3.2699 9.6670 1.0000
Li 6.5313 9.6670 1.0000
Li 9.7928 9.6670 1.0000
O 0.0084 0.2519 1.6657
O 3.2699 0.2519 1.6657
O 6.5313 0.2519 1.6657
O 9.7928 0.2519 1.6657
O 1.6391 3.0765 1.6657
O 4.9006 3.0765 1.6657
O 8.1621 3.0765 1.6657
O 11.4235 3.0765 1.6657
O 0.0084 5.9010 1.6657
O 3.2699 5.9010 1.6657
O 6.5313 5.9010 1.6657
O 9.7928 5.9010 1.6657
O -1.6223 8.7255 1.6657
O 1.6391 8.7255 1.6657
O 4.9006 8.7255 1.6657
O 8.1621 8.7255 1.6657
Li 0.0084 2.1350 2.3315
Li 3.2699 2.1350 2.3315
Li 6.5313 2.1350 2.3315
Li 9.7928 2.1350 2.3315
Li 1.6391 4.9595 2.3315
Li 4.9006 4.9595 2.3315
Li 8.1621 4.9595 2.3315
Li 11.4235 4.9595 2.3315
Li 0.0084 7.7840 2.3315
Li 3.2699 7.7840 2.3315
Li 6.5313 7.7840 2.3315
Li 9.7928 7.7840 2.3315
Li -1.6223 10.6085 2.3315
Li 1.6391 10.6085 2.3315
Li 4.9006 10.6085 2.3315
Li 8.1621 10.6085 2.3315
Li 0.0084 0.2519 3.6630
Li 3.2699 0.2519 3.6630
Li 6.5313 0.2519 3.6630
Li 9.7928 0.2519 3.6630
Li 1.6391 3.0765 3.6630
Li 4.9006 3.0765 3.6630
Li 8.1621 3.0765 3.6630
Li 11.4235 3.0765 3.6630
Li 0.0084 5.9010 3.6630
Li 3.2699 5.9010 3.6630
Li 6.5313 5.9010 3.6630
Li 9.7928 5.9010 3.6630
Li -1.6223 8.7255 3.6630
Li 1.6391 8.7255 3.6630
Li 4.9006 8.7255 3.6630
Li 8.1621 8.7255 3.6630
O 0.0084 2.1350 4.3287
O 3.2699 2.1350 4.3287
O 6.5313 2.1350 4.3287
O 9.7928 2.1350 4.3287
O 1.6391 4.9595 4.3287
O 4.9006 4.9595 4.3287
O 8.1621 4.9595 4.3287
O 11.4235 4.9595 4.3287
O 0.0084 7.7840 4.3287
O 3.2699 7.7840 4.3287
O 6.5313 7.7840 4.3287
O 9.7928 7.7840 4.3287
O -1.6223 10.6085 4.3287
O 1.6391 10.6085 4.3287
O 4.9006 10.6085 4.3287
O 8.1621 10.6085 4.3287
Li 1.6391 1.1934 4.9945
Li 4.9006 1.1934 4.9945
Li 8.1621 1.1934 4.9945
Li 11.4235 1.1934 4.9945
Li 0.0084 4.0180 4.9945
Li 3.2699 4.0180 4.9945
Li 6.5313 4.0180 4.9945
Li 9.7928 4.0180 4.9945
Li -1.6223 6.8425 4.9945
Li 1.6391 6.8425 4.9945
Li 4.9006 6.8425 4.9945
Li 8.1621 6.8425 4.9945
Li 0.0084 9.6670 4.9945
Li 3.2699 9.6670 4.9945
Li 6.5313 9.6670 4.9945
Li 9.7928 9.6670 4.9945
Li 0.0084 2.1350 6.3260
Li 3.2699 2.1350 6.3260
Li 6.5313 2.1350 6.3260
Li 9.7928 2.1350 6.3260
Li 1.6391 4.9595 6.3260
Li 4.9006 4.9595 6.3260
Li 8.1621 4.9595 6.3260
Li 11.4235 4.9595 6.3260
Li 0.0084 7.7840 6.3260
Li 3.2699 7.7840 6.3260
Li 6.5313 7.7840 6.3260
Li 9.7928 7.7840 6.3260
Li -1.6223 10.6085 6.3260
Li 1.6391 10.6085 6.3260
Li 4.9006 10.6085 6.3260
Li 8.1621 10.6085 6.3260
O 1.6391 1.1934 6.9917
O 4.9006 1.1934 6.9917
O 8.1621 1.1934 6.9917
O 11.4235 1.1934 6.9917
O 0.0084 4.0180 6.9917
O 3.2699 4.0180 6.9917
O 6.5313 4.0180 6.9917
O 9.7928 4.0180 6.9917
O -1.6223 6.8425 6.9917
O 1.6391 6.8425 6.9917
O 4.9006 6.8425 6.9917
O 8.1621 6.8425 6.9917
O 0.0084 9.6670 6.9917
O 3.2699 9.6670 6.9917
O 6.5313 9.6670 6.9917
O 9.7928 9.6670 6.9917
Li 0.0084 0.2519 7.6574
Li 3.2699 0.2519 7.6574
Li 6.5313 0.2519 7.6574
Li 9.7928 0.2519 7.6574
Li 1.6391 3.0765 7.6574
Li 4.9006 3.0765 7.6574
Li 8.1621 3.0765 7.6574
Li 11.4235 3.0765 7.6574
Li 0.0084 5.9010 7.6574
Li 3.2699 5.9010 7.6574
Li 6.5313 5.9010 7.6574
Li 9.7928 5.9010 7.6574
Li -1.6223 8.7255 7.6574
Li 1.6391 8.7255 7.6574
Li 4.9006 8.7255 7.6574
Li 8.1621 8.7255 7.6574
Li 1.6391 1.1934 8.9889
Li 4.9006 1.1934 8.9889
Li 8.1621 1.1934 8.9889
Li 11.4235 1.1934 8.9889
Li 0.0084 4.0180 8.9889
Li 3.2699 4.0180 8.9889
Li 6.5313 4.0180 8.9889
Li 9.7928 4.0180 8.9889
Li -1.6223 6.8425 8.9889
Li 1.6391 6.8425 8.9889
Li 4.9006 6.8425 8.9889
Li 8.1621 6.8425 8.9889
Li 0.0084 9.6670 8.9889
Li 3.2699 9.6670 8.9889
Li 6.5313 9.6670 8.9889
Li 9.7928 9.6670 8.9889
O 0.0084 0.2519 9.6547
O 3.2699 0.2519 9.6547
O 6.5313 0.2519 9.6547
O 9.7928 0.2519 9.6547
O 1.6391 3.0765 9.6547
O 4.9006 3.0765 9.6547
O 8.1621 3.0765 9.6547
O 11.4235 3.0765 9.6547
O 0.0084 5.9010 9.6547
O 3.2699 5.9010 9.6547
O 6.5313 5.9010 9.6547
O 9.7928 5.9010 9.6547
O -1.6223 8.7255 9.6547
O 1.6391 8.7255 9.6547
O 4.9006 8.7255 9.6547
O 8.1621 8.7255 9.6547
Li 0.0084 2.1350 10.3204
Li 3.2699 2.1350 10.3204
Li 6.5313 2.1350 10.3204
Li 9.7928 2.1350 10.3204
Li 1.6391 4.9595 10.3204
Li 4.9006 4.9595 10.3204
Li 8.1621 4.9595 10.3204
Li 11.4235 4.9595 10.3204
Li 0.0084 7.7840 10.3204
Li 3.2699 7.7840 10.3204
Li 6.5313 7.7840 10.3204
Li 9.7928 7.7840 10.3204
Li -1.6223 10.6085 10.3204
Li 1.6391 10.6085 10.3204
Li 4.9006 10.6085 10.3204
Li 8.1621 10.6085 10.3204
Li 0.0084 0.2519 11.6519
Li 3.2699 0.2519 11.6519
Li 6.5313 0.2519 11.6519
Li 9.7928 0.2519 11.6519
Li 1.6391 3.0765 11.6519
Li 4.9006 3.0765 11.6519
Li 8.1621 3.0765 11.6519
Li 11.4235 3.0765 11.6519
Li 0.0084 5.9010 11.6519
Li 3.2699 5.9010 11.6519
Li 6.5313 5.9010 11.6519
Li 9.7928 5.9010 11.6519
Li -1.6223 8.7255 11.6519
Li 1.6391 8.7255 11.6519
Li 4.9006 8.7255 11.6519
Li 8.1621 8.7255 11.6519
O 0.0084 2.1350 12.3176
O 3.2699 2.1350 12.3176
O 6.5313 2.1350 12.3176
O 9.7928 2.1350 12.3176
O 1.6391 4.9595 12.3176
O 4.9006 4.9595 12.3176
O 8.1621 4.9595 12.3176
O 11.4235 4.9595 12.3176
O 0.0084 7.7840 12.3176
O 3.2699 7.7840 12.3176
O 6.5313 7.7840 12.3176
O 9.7928 7.7840 12.3176
O -1.6223 10.6085 12.3176
O 1.6391 10.6085 12.3176
O 4.9006 10.6085 12.3176
O 8.1621 10.6085 12.3176
Li 1.6391 1.1934 12.9834
Li 4.9006 1.1934 12.9834
Li 8.1621 1.1934 12.9834
Li 11.4235 1.1934 12.9834
Li 0.0084 4.0180 12.9834
Li 3.2699 4.0180 12.9834
Li 6.5313 4.0180 12.9834
Li 9.7928 4.0180 12.9834
Li -1.6223 6.8425 12.9834
Li 1.6391 6.8425 12.9834
Li 4.9006 6.8425 12.9834
Li 8.1621 6.8425 12.9834
Li 0.0084 9.6670 12.9834
Li 3.2699 9.6670 12.9834
Li 6.5313 9.6670 12.9834
Li 9.7928 9.6670 12.9834
Li 0.0084 2.1350 14.3149
Li 3.2699 2.1350 14.3149
Li 6.5313 2.1350 14.3149
Li 9.7928 2.1350 14.3149
Li 1.6391 4.9595 14.3149
Li 4.9006 4.9595 14.3149
Li 8.1621 4.9595 14.3149
Li 11.4235 4.9595 14.3149
Li 0.0084 7.7840 14.3149
Li 3.2699 7.7840 14.3149
Li 6.5313 7.7840 14.3149
Li 9.7928 7.7840 14.3149
Li -1.6223 10.6085 14.3149
Li 1.6391 10.6085 14.3149
Li 4.9006 10.6085 14.3149
Li 8.1621 10.6085 14.3149
Li 6.5145 0.2616 16.4569
Li 3.9943 0.7752 16.4569
Li 1.4741 1.2887 16.4569
Li 11.9997 1.8022 16.4569
Li 9.4795 2.3158 16.4569
Li 6.9593 2.8293 16.4569
Li 4.4390 3.3429 16.4569
Li 1.9188 3.8564 16.4569
Li -0.6014 4.3700 16.4569
Li 9.9242 4.8835 16.4569
Li 7.4040 5.3971 16.4569
Li 4.8838 5.9106 16.4569
Li 2.3636 6.4242 16.4569
Li -0.1567 6.9377 16.4569
Li 10.3690 7.4513 16.4569
Li 7.8488 7.9648 16.4569
Li 5.3285 8.4784 16.4569
Li 2.8083 8.9919 16.4569
Li 0.2881 9.5055 16.4569
Li -2.2321 10.0190 16.4569
Li 8.2935 10.5326 16.4569
Li 5.7733 11.0461 16.4569
O 10.5172 0.7752 17.3082
O 5.4768 1.8022 17.3082
O 0.4363 2.8293 17.3082
O 8.4418 3.8564 17.3082
O 3.4013 4.8835 17.3082
O -1.6391 5.9106 17.3082
O 6.3663 6.9377 17.3082
O 1.3258 7.9648 17.3082
O 9.3312 8.9919 17.3082
O 4.2908 10.0190 17.3082
O -0.7496 11.0461 17.3082
H 10.5172 0.7752 18.2783
H 5.4768 1.8022 18.2783
H 0.4363 2.8293 18.2783
H 8.4418 3.8564 18.2783
H 3.4013 4.8835 18.2783
H -1.6391 5.9106 18.2783
H 6.3663 6.9377 18.2783
H 1.3258 7.9648 18.2783
H 9.3312 8.9919 18.2783
H 4.2908 10.0190 18.2783
H -0.7496 11.0461 18.2783
H -0.0084 0.2616 19.0459
H 7.9970 1.2887 19.0459
H 2.9566 2.3158 19.0459
H 10.9620 3.3429 19.0459
H 5.9215 4.3700 19.0459
H 0.8811 5.3971 19.0459
H 8.8865 6.4242 19.0459
H 3.8461 7.4513 19.0459
H -1.1944 8.4784 19.0459
H 6.8110 9.5055 19.0459
H 1.7706 10.5326 19.0459
O -0.0084 0.2616 20.0160
O 7.9970 1.2887 20.0160
O 2.9566 2.3158 20.0160
O 10.9620 3.3429 20.0160
O 5.9215 4.3700 20.0160
O 0.8811 5.3971 20.0160
O 8.8865 6.4242 20.0160
O 3.8461 7.4513 20.0160
O -1.1944 8.4784 20.0160
O 6.8110 9.5055 20.0160
O 1.7706 10.5326 20.0160
Li 6.5145 0.2616 20.8673
Li 3.9943 0.7752 20.8673
Li 1.4741 1.2887 20.8673
Li 11.9997 1.8022 20.8673
Li 9.4795 2.3158 20.8673
Li 6.9593 2.8293 20.8673
Li 4.4390 3.3429 20.8673
Li 1.9188 3.8564 20.8673
Li -0.6014 4.3700 20.8673
Li 9.9242 4.8835 20.8673
Li 7.4040 5.3971 20.8673
Li 4.8838 5.9106 20.8673
Li 2.3636 6.4242 20.8673
Li -0.1567 6.9377 20.8673
Li 10.3690 7.4513 20.8673
Li 7.8488 7.9648 20.8673
Li 5.3285 8.4784 20.8673
Li 2.8083 8.9919 20.8673
Li 0.2881 9.5055 20.8673
Li -2.2321 10.0190 20.8673
Li 8.2935 10.5326 20.8673
Li 5.7733 11.0461 20.8673
O 10.5172 0.7752 21.7186
O 5.4768 1.8022 21.7186
O 0.4363 2.8293 21.7186
O 8.4418 3.8564 21.7186
O 3.4013 4.8835 21.7186
O -1.6391 5.9106 21.7186
O 6.3663 6.9377 21.7186
O 1.3258 7.9648 21.7186
O 9.3312 8.9919 21.7186
O 4.2908 10.0190 21.7186
O -0.7496 11.0461 21.7186
H 10.5172 0.7752 22.6887
H 5.4768 1.8022 22.6887
H 0.4363 2.8293 22.6887
H 8.4418 3.8564 22.6887
H 3.4013 4.8835 22.6887
H -1.6391 5.9106 22.6887
H 6.3663 6.9377 22.6887
H 1.3258 7.9648 22.6887
H 9.3312 8.9919 22.6887
H 4.2908 10.0190 22.6887
H -0.7496 11.0461 22.6887
H -0.0084 0.2616 23.4564
H 7.9970 1.2887 23.4564
H 2.9566 2.3158 23.4564
H 10.9620 3.3429 23.4564
H 5.9215 4.3700 23.4564
H 0.8811 5.3971 23.4564
H 8.8865 6.4242 23.4564
H 3.8461 7.4513 23.4564
H -1.1944 8.4784 23.4564
H 6.8110 9.5055 23.4564
H 1.7706 10.5326 23.4564
O -0.0084 0.2616 24.4265
O 7.9970 1.2887 24.4265
O 2.9566 2.3158 24.4265
O 10.9620 3.3429 24.4265
O 5.9215 4.3700 24.4265
O 0.8811 5.3971 24.4265
O 8.8865 6.4242 24.4265
O 3.8461 7.4513 24.4265
O -1.1944 8.4784 24.4265
O 6.8110 9.5055 24.4265
O 1.7706 10.5326 24.4265
Li 6.5145 0.2616 25.2778
Li 3.9943 0.7752 25.2778
Li 1.4741 1.2887 25.2778
Li 11.9997 1.8022 25.2778
Li 9.4795 2.3158 25.2778
Li 6.9593 2.8293 25.2778
Li 4.4390 3.3429 25.2778
Li 1.9188 3.8564 25.2778
Li -0.6014 4.3700 25.2778
Li 9.9242 4.8835 25.2778
Li 7.4040 5.3971 25.2778
Li 4.8838 5.9106 25.2778
Li 2.3636 6.4242 25.2778
Li -0.1567 6.9377 25.2778
Li 10.3690 7.4513 25.2778
Li 7.8488 7.9648 25.2778
Li 5.3285 8.4784 25.2778
Li 2.8083 8.9919 25.2778
Li 0.2881 9.5055 25.2778
Li -2.2321 10.0190 25.2778
Li 8.2935 10.5326 25.2778
Li 5.7733 11.0461 25.2778
O 10.5172 0.7752 26.1291
O 5.4768 1.8022 26.1291
O 0.4363 2.8293 26.1291
O 8.4418 3.8564 26.1291
O 3.4013 4.8835 26.1291
O -1.6391 5.9106 26.1291
O 6.3663 6.9377 26.1291
O 1.3258 7.9648 26.1291
O 9.3312 8.9919 26.1291
O 4.2908 10.0190 26.1291
O -0.7496 11.0461 26.1291
H 10.5172 0.7752 27.0992
H 5.4768 1.8022 27.0992
H 0.4363 2.8293 27.0992
H 8.4418 3.8564 27.0992
H 3.4013 4.8835 27.0992
H -1.6391 5.9106 27.0992
H 6.3663 6.9377 27.0992
H 1.3258 7.9648 27.0992
H 9.3312 8.9919 27.0992
H 4.2908 10.0190 27.0992
H -0.7496 11.0461 27.0992
H -0.0084 0.2616 27.8668
H 7.9970 1.2887 27.8668
H 2.9566 2.3158 27.8668
H 10.9620 3.3429 27.8668
H 5.9215 4.3700 27.8668
H 0.8811 5.3971 27.8668
H 8.8865 6.4242 27.8668
H 3.8461 7.4513 27.8668
H -1.1944 8.4784 27.8668
H 6.8110 9.5055 27.8668
H 1.7706 10.5326 27.8668
O -0.0084 0.2616 28.8369
O 7.9970 1.2887 28.8369
O 2.9566 2.3158 28.8369
O 10.9620 3.3429 28.8369
O 5.9215 4.3700 28.8369
O 0.8811 5.3971 28.8369
O 8.8865 6.4242 28.8369
O 3.8461 7.4513 28.8369
O -1.1944 8.4784 28.8369
O 6.8110 9.5055 28.8369
O 1.7706 10.5326 28.8369
Li 6.5145 0.2616 29.6883
Li 3.9943 0.7752 29.6883
Li 1.4741 1.2887 29.6883
Li 11.9997 1.8022 29.6883
Li 9.4795 2.3158 29.6883
Li 6.9593 2.8293 29.6883
Li 4.4390 3.3429 29.6883
Li 1.9188 3.8564 29.6883
Li -0.6014 4.3700 29.6883
Li 9.9242 4.8835 29.6883
Li 7.4040 5.3971 29.6883
Li 4.8838 5.9106 29.6883
Li 2.3636 6.4242 29.6883
Li -0.1567 6.9377 29.6883
Li 10.3690 7.4513 29.6883
Li 7.8488 7.9648 29.6883
Li 5.3285 8.4784 29.6883
Li 2.8083 8.9919 29.6883
Li 0.2881 9.5055 29.6883
Li -2.2321 10.0190 29.6883
Li 8.2935 10.5326 29.6883
Li 5.7733 11.0461 29.6883
O 10.5172 0.7752 30.5396
O 5.4768 1.8022 30.5396
O 0.4363 2.8293 30.5396
O 8.4418 3.8564 30.5396
O 3.4013 4.8835 30.5396
O -1.6391 5.9106 30.5396
O 6.3663 6.9377 30.5396
O 1.3258 7.9648 30.5396
O 9.3312 8.9919 30.5396
O 4.2908 10.0190 30.5396
O -0.7496 11.0461 30.5396
