457
XYZ file generated by QuantumATK for match 42
O 6.1058 -0.2261 1.0000
O 10.6287 -1.1307 1.0000
O 3.3921 -2.0353 1.0000
O 7.9150 -2.9398 1.0000
O 0.6784 -3.8444 1.0000
O 5.2013 -4.7490 1.0000
O 9.7241 -5.6536 1.0000
O 2.4876 -6.5581 1.0000
O 7.0104 -7.4627 1.0000
O 11.5332 -8.3673 1.0000
O 4.2967 -9.2718 1.0000
O 8.8195 -10.1764 1.0000
O 1.5830 -11.0810 1.0000
Li 0.2261 -0.2261 2.1531
Li 2.4876 -0.6784 2.1531
Li 4.7490 -1.1307 2.1531
Li 7.0104 -1.5830 2.1531
Li 9.2718 -2.0353 2.1531
Li 11.5332 -2.4876 2.1531
Li 2.0353 -2.9398 2.1531
Li 4.2967 -3.3921 2.1531
Li 6.5581 -3.8444 2.1531
Li 8.8195 -4.2967 2.1531
Li 11.0810 -4.7490 2.1531
Li 1.5830 -5.2013 2.1531
Li 3.8444 -5.6536 2.1531
Li 6.1058 -6.1058 2.1531
Li 8.3673 -6.5581 2.1531
Li 10.6287 -7.0104 2.1531
Li 1.1307 -7.4627 2.1531
Li 3.3921 -7.9150 2.1531
Li 5.6536 -8.3673 2.1531
Li 7.9150 -8.8195 2.1531
Li 10.1764 -9.2718 2.1531
Li 0.6784 -9.7241 2.1531
Li 2.9398 -10.1764 2.1531
Li 5.2013 -10.6287 2.1531
Li 7.4627 -11.0810 2.1531
Li 9.7241 -11.5332 2.1531
O 8.3673 -0.6784 3.3062
O 1.1307 -1.5830 3.3062
O 5.6536 -2.4876 3.3062
O 10.1764 -3.3921 3.3062
O 2.9398 -4.2967 3.3062
O 7.4627 -5.2013 3.3062
O 0.2261 -6.1058 3.3062
O 4.7490 -7.0104 3.3062
O 9.2718 -7.9150 3.3062
O 2.0353 -8.8195 3.3062
O 6.5581 -9.7241 3.3062
O 11.0810 -10.6287 3.3062
O 3.8444 -11.5332 3.3062
Li 0.2261 -0.2261 4.4593
Li 2.4876 -0.6784 4.4593
Li 4.7490 -1.1307 4.4593
Li 7.0104 -1.5830 4.4593
Li 9.2718 -2.0353 4.4593
Li 11.5332 -2.4876 4.4593
Li 2.0353 -2.9398 4.4593
Li 4.2967 -3.3921 4.4593
Li 6.5581 -3.8444 4.4593
Li 8.8195 -4.2967 4.4593
Li 11.0810 -4.7490 4.4593
Li 1.5830 -5.2013 4.4593
Li 3.8444 -5.6536 4.4593
Li 6.1058 -6.1058 4.4593
Li 8.3673 -6.5581 4.4593
Li 10.6287 -7.0104 4.4593
Li 1.1307 -7.4627 4.4593
Li 3.3921 -7.9150 4.4593
Li 5.6536 -8.3673 4.4593
Li 7.9150 -8.8195 4.4593
Li 10.1764 -9.2718 4.4593
Li 0.6784 -9.7241 4.4593
Li 2.9398 -10.1764 4.4593
Li 5.2013 -10.6287 4.4593
Li 7.4627 -11.0810 4.4593
Li 9.7241 -11.5332 4.4593
O 6.1058 -0.2261 5.6124
O 10.6287 -1.1307 5.6124
O 3.3921 -2.0353 5.6124
O 7.9150 -2.9398 5.6124
O 0.6784 -3.8444 5.6124
O 5.2013 -4.7490 5.6124
O 9.7241 -5.6536 5.6124
O 2.4876 -6.5581 5.6124
O 7.0104 -7.4627 5.6124
O 11.5332 -8.3673 5.6124
O 4.2967 -9.2718 5.6124
O 8.8195 -10.1764 5.6124
O 1.5830 -11.0810 5.6124
Li 0.2261 -0.2261 6.7655
Li 2.4876 -0.6784 6.7655
Li 4.7490 -1.1307 6.7655
Li 7.0104 -1.5830 6.7655
Li 9.2718 -2.0353 6.7655
Li 11.5332 -2.4876 6.7655
Li 2.0353 -2.9398 6.7655
Li 4.2967 -3.3921 6.7655
Li 6.5581 -3.8444 6.7655
Li 8.8195 -4.2967 6.7655
Li 11.0810 -4.7490 6.7655
Li 1.5830 -5.2013 6.7655
Li 3.8444 -5.6536 6.7655
Li 6.1058 -6.1058 6.7655
Li 8.3673 -6.5581 6.7655
Li 10.6287 -7.0104 6.7655
Li 1.1307 -7.4627 6.7655
Li 3.3921 -7.9150 6.7655
Li 5.6536 -8.3673 6.7655
Li 7.9150 -8.8195 6.7655
Li 10.1764 -9.2718 6.7655
Li 0.6784 -9.7241 6.7655
Li 2.9398 -10.1764 6.7655
Li 5.2013 -10.6287 6.7655
Li 7.4627 -11.0810 6.7655
Li 9.7241 -11.5332 6.7655
O 8.3673 -0.6784 7.9186
O 1.1307 -1.5830 7.9186
O 5.6536 -2.4876 7.9186
O 10.1764 -3.3921 7.9186
O 2.9398 -4.2967 7.9186
O 7.4627 -5.2013 7.9186
O 0.2261 -6.1058 7.9186
O 4.7490 -7.0104 7.9186
O 9.2718 -7.9150 7.9186
O 2.0353 -8.8195 7.9186
O 6.5581 -9.7241 7.9186
O 11.0810 -10.6287 7.9186
O 3.8444 -11.5332 7.9186
Li 0.2261 -0.2261 9.0717
Li 2.4876 -0.6784 9.0717
Li 4.7490 -1.1307 9.0717
Li 7.0104 -1.5830 9.0717
Li 9.2718 -2.0353 9.0717
Li 11.5332 -2.4876 9.0717
Li 2.0353 -2.9398 9.0717
Li 4.2967 -3.3921 9.0717
Li 6.5581 -3.8444 9.0717
Li 8.8195 -4.2967 9.0717
Li 11.0810 -4.7490 9.0717
Li 1.5830 -5.2013 9.0717
Li 3.8444 -5.6536 9.0717
Li 6.1058 -6.1058 9.0717
Li 8.3673 -6.5581 9.0717
Li 10.6287 -7.0104 9.0717
Li 1.1307 -7.4627 9.0717
Li 3.3921 -7.9150 9.0717
Li 5.6536 -8.3673 9.0717
Li 7.9150 -8.8195 9.0717
Li 10.1764 -9.2718 9.0717
Li 0.6784 -9.7241 9.0717
Li 2.9398 -10.1764 9.0717
Li 5.2013 -10.6287 9.0717
Li 7.4627 -11.0810 9.0717
Li 9.7241 -11.5332 9.0717
O 6.1058 -0.2261 10.2248
O 10.6287 -1.1307 10.2248
O 3.3921 -2.0353 10.2248
O 7.9150 -2.9398 10.2248
O 0.6784 -3.8444 10.2248
O 5.2013 -4.7490 10.2248
O 9.7241 -5.6536 10.2248
O 2.4876 -6.5581 10.2248
O 7.0104 -7.4627 10.2248
O 11.5332 -8.3673 10.2248
O 4.2967 -9.2718 10.2248
O 8.8195 -10.1764 10.2248
O 1.5830 -11.0810 10.2248
Li 0.2261 -0.2261 11.3779
Li 2.4876 -0.6784 11.3779
Li 4.7490 -1.1307 11.3779
Li 7.0104 -1.5830 11.3779
Li 9.2718 -2.0353 11.3779
Li 11.5332 -2.4876 11.3779
Li 2.0353 -2.9398 11.3779
Li 4.2967 -3.3921 11.3779
Li 6.5581 -3.8444 11.3779
Li 8.8195 -4.2967 11.3779
Li 11.0810 -4.7490 11.3779
Li 1.5830 -5.2013 11.3779
Li 3.8444 -5.6536 11.3779
Li 6.1058 -6.1058 11.3779
Li 8.3673 -6.5581 11.3779
Li 10.6287 -7.0104 11.3779
Li 1.1307 -7.4627 11.3779
Li 3.3921 -7.9150 11.3779
Li 5.6536 -8.3673 11.3779
Li 7.9150 -8.8195 11.3779
Li 10.1764 -9.2718 11.3779
Li 0.6784 -9.7241 11.3779
Li 2.9398 -10.1764 11.3779
Li 5.2013 -10.6287 11.3779
Li 7.4627 -11.0810 11.3779
Li 9.7241 -11.5332 11.3779
O 8.3673 -0.6784 12.5310
O 1.1307 -1.5830 12.5310
O 5.6536 -2.4876 12.5310
O 10.1764 -3.3921 12.5310
O 2.9398 -4.2967 12.5310
O 7.4627 -5.2013 12.5310
O 0.2261 -6.1058 12.5310
O 4.7490 -7.0104 12.5310
O 9.2718 -7.9150 12.5310
O 2.0353 -8.8195 12.5310
O 6.5581 -9.7241 12.5310
O 11.0810 -10.6287 12.5310
O 3.8444 -11.5332 12.5310
Li 0.2261 -0.2261 13.6841
Li 2.4876 -0.6784 13.6841
Li 4.7490 -1.1307 13.6841
Li 7.0104 -1.5830 13.6841
Li 9.2718 -2.0353 13.6841
Li 11.5332 -2.4876 13.6841
Li 2.0353 -2.9398 13.6841
Li 4.2967 -3.3921 13.6841
Li 6.5581 -3.8444 13.6841
Li 8.8195 -4.2967 13.6841
Li 11.0810 -4.7490 13.6841
Li 1.5830 -5.2013 13.6841
Li 3.8444 -5.6536 13.6841
Li 6.1058 -6.1058 13.6841
Li 8.3673 -6.5581 13.6841
Li 10.6287 -7.0104 13.6841
Li 1.1307 -7.4627 13.6841
Li 3.3921 -7.9150 13.6841
Li 5.6536 -8.3673 13.6841
Li 7.9150 -8.8195 13.6841
Li 10.1764 -9.2718 13.6841
Li 0.6784 -9.7241 13.6841
Li 2.9398 -10.1764 13.6841
Li 5.2013 -10.6287 13.6841
Li 7.4627 -11.0810 13.6841
Li 9.7241 -11.5332 13.6841
O 6.1058 -0.2261 14.8372
O 10.6287 -1.1307 14.8372
O 3.3921 -2.0353 14.8372
O 7.9150 -2.9398 14.8372
O 0.6784 -3.8444 14.8372
O 5.2013 -4.7490 14.8372
O 9.7241 -5.6536 14.8372
O 2.4876 -6.5581 14.8372
O 7.0104 -7.4627 14.8372
O 11.5332 -8.3673 14.8372
O 4.2967 -9.2718 14.8372
O 8.8195 -10.1764 14.8372
O 1.5830 -11.0810 14.8372
Li 1.9900 -0.8141 16.4699
Li 7.8697 -0.8141 16.4699
Li 5.5179 -1.9900 16.4699
Li 11.3976 -1.9900 16.4699
Li 3.1660 -3.1660 16.4699
Li 9.0457 -3.1660 16.4699
Li 0.8141 -4.3419 16.4699
Li 6.6938 -4.3419 16.4699
Li 4.3419 -5.5179 16.4699
Li 10.2216 -5.5179 16.4699
Li 1.9900 -6.6938 16.4699
Li 7.8697 -6.6938 16.4699
Li 5.5179 -7.8697 16.4699
Li 11.3976 -7.8697 16.4699
Li 3.1660 -9.0457 16.4699
Li 9.0457 -9.0457 16.4699
Li 0.8141 -10.2216 16.4699
Li 6.6938 -10.2216 16.4699
Li 4.3419 -11.3976 16.4699
Li 10.2216 -11.3976 16.4699
O 6.1058 -0.2261 17.3212
O 9.6336 -1.4021 17.3212
O 1.4021 -2.5780 17.3212
O 4.9299 -3.7540 17.3212
O 8.4577 -4.9299 17.3212
O 0.2261 -6.1058 17.3212
O 3.7540 -7.2818 17.3212
O 7.2818 -8.4577 17.3212
O 10.8096 -9.6336 17.3212
O 2.5780 -10.8096 17.3212
H 6.1058 -0.2261 18.2913
H 9.6336 -1.4021 18.2913
H 1.4021 -2.5780 18.2913
H 4.9299 -3.7540 18.2913
H 8.4577 -4.9299 18.2913
H 0.2261 -6.1058 18.2913
H 3.7540 -7.2818 18.2913
H 7.2818 -8.4577 18.2913
H 10.8096 -9.6336 18.2913
H 2.5780 -10.8096 18.2913
H 0.2261 -0.2261 19.0590
H 3.7540 -1.4021 19.0590
H 7.2818 -2.5780 19.0590
H 10.8096 -3.7540 19.0590
H 2.5780 -4.9299 19.0590
H 6.1058 -6.1058 19.0590
H 9.6336 -7.2818 19.0590
H 1.4021 -8.4577 19.0590
H 4.9299 -9.6336 19.0590
H 8.4577 -10.8096 19.0590
O 0.2261 -0.2261 20.0291
O 3.7540 -1.4021 20.0291
O 7.2818 -2.5780 20.0291
O 10.8096 -3.7540 20.0291
O 2.5780 -4.9299 20.0291
O 6.1058 -6.1058 20.0291
O 9.6336 -7.2818 20.0291
O 1.4021 -8.4577 20.0291
O 4.9299 -9.6336 20.0291
O 8.4577 -10.8096 20.0291
Li 1.9900 -0.8141 20.8804
Li 7.8697 -0.8141 20.8804
Li 5.5179 -1.9900 20.8804
Li 11.3976 -1.9900 20.8804
Li 3.1660 -3.1660 20.8804
Li 9.0457 -3.1660 20.8804
Li 0.8141 -4.3419 20.8804
Li 6.6938 -4.3419 20.8804
Li 4.3419 -5.5179 20.8804
Li 10.2216 -5.5179 20.8804
Li 1.9900 -6.6938 20.8804
Li 7.8697 -6.6938 20.8804
Li 5.5179 -7.8697 20.8804
Li 11.3976 -7.8697 20.8804
Li 3.1660 -9.0457 20.8804
Li 9.0457 -9.0457 20.8804
Li 0.8141 -10.2216 20.8804
Li 6.6938 -10.2216 20.8804
Li 4.3419 -11.3976 20.8804
Li 10.2216 -11.3976 20.8804
O 6.1058 -0.2261 21.7317
O 9.6336 -1.4021 21.7317
O 1.4021 -2.5780 21.7317
O 4.9299 -3.7540 21.7317
O 8.4577 -4.9299 21.7317
O 0.2261 -6.1058 21.7317
O 3.7540 -7.2818 21.7317
O 7.2818 -8.4577 21.7317
O 10.8096 -9.6336 21.7317
O 2.5780 -10.8096 21.7317
H 6.1058 -0.2261 22.7018
H 9.6336 -1.4021 22.7018
H 1.4021 -2.5780 22.7018
H 4.9299 -3.7540 22.7018
H 8.4577 -4.9299 22.7018
H 0.2261 -6.1058 22.7018
H 3.7540 -7.2818 22.7018
H 7.2818 -8.4577 22.7018
H 10.8096 -9.6336 22.7018
H 2.5780 -10.8096 22.7018
H 0.2261 -0.2261 23.4694
H 3.7540 -1.4021 23.4694
H 7.2818 -2.5780 23.4694
H 10.8096 -3.7540 23.4694
H 2.5780 -4.9299 23.4694
H 6.1058 -6.1058 23.4694
H 9.6336 -7.2818 23.4694
H 1.4021 -8.4577 23.4694
H 4.9299 -9.6336 23.4694
H 8.4577 -10.8096 23.4694
O 0.2261 -0.2261 24.4395
O 3.7540 -1.4021 24.4395
O 7.2818 -2.5780 24.4395
O 10.8096 -3.7540 24.4395
O 2.5780 -4.9299 24.4395
O 6.1058 -6.1058 24.4395
O 9.6336 -7.2818 24.4395
O 1.4021 -8.4577 24.4395
O 4.9299 -9.6336 24.4395
O 8.4577 -10.8096 24.4395
Li 1.9900 -0.8141 25.2908
Li 7.8697 -0.8141 25.2908
Li 5.5179 -1.9900 25.2908
Li 11.3976 -1.9900 25.2908
Li 3.1660 -3.1660 25.2908
Li 9.0457 -3.1660 25.2908
Li 0.8141 -4.3419 25.2908
Li 6.6938 -4.3419 25.2908
Li 4.3419 -5.5179 25.2908
Li 10.2216 -5.5179 25.2908
Li 1.9900 -6.6938 25.2908
Li 7.8697 -6.6938 25.2908
Li 5.5179 -7.8697 25.2908
Li 11.3976 -7.8697 25.2908
Li 3.1660 -9.0457 25.2908
Li 9.0457 -9.0457 25.2908
Li 0.8141 -10.2216 25.2908
Li 6.6938 -10.2216 25.2908
Li 4.3419 -11.3976 25.2908
Li 10.2216 -11.3976 25.2908
O 6.1058 -0.2261 26.1422
O 9.6336 -1.4021 26.1422
O 1.4021 -2.5780 26.1422
O 4.9299 -3.7540 26.1422
O 8.4577 -4.9299 26.1422
O 0.2261 -6.1058 26.1422
O 3.7540 -7.2818 26.1422
O 7.2818 -8.4577 26.1422
O 10.8096 -9.6336 26.1422
O 2.5780 -10.8096 26.1422
H 6.1058 -0.2261 27.1123
H 9.6336 -1.4021 27.1123
H 1.4021 -2.5780 27.1123
H 4.9299 -3.7540 27.1123
H 8.4577 -4.9299 27.1123
H 0.2261 -6.1058 27.1123
H 3.7540 -7.2818 27.1123
H 7.2818 -8.4577 27.1123
H 10.8096 -9.6336 27.1123
H 2.5780 -10.8096 27.1123
H 0.2261 -0.2261 27.8799
H 3.7540 -1.4021 27.8799
H 7.2818 -2.5780 27.8799
H 10.8096 -3.7540 27.8799
H 2.5780 -4.9299 27.8799
H 6.1058 -6.1058 27.8799
H 9.6336 -7.2818 27.8799
H 1.4021 -8.4577 27.8799
H 4.9299 -9.6336 27.8799
H 8.4577 -10.8096 27.8799
O 0.2261 -0.2261 28.8500
O 3.7540 -1.4021 28.8500
O 7.2818 -2.5780 28.8500
O 10.8096 -3.7540 28.8500
O 2.5780 -4.9299 28.8500
O 6.1058 -6.1058 28.8500
O 9.6336 -7.2818 28.8500
O 1.4021 -8.4577 28.8500
O 4.9299 -9.6336 28.8500
O 8.4577 -10.8096 28.8500
Li 1.9900 -0.8141 29.7013
Li 7.8697 -0.8141 29.7013
Li 5.5179 -1.9900 29.7013
Li 11.3976 -1.9900 29.7013
Li 3.1660 -3.1660 29.7013
Li 9.0457 -3.1660 29.7013
Li 0.8141 -4.3419 29.7013
Li 6.6938 -4.3419 29.7013
Li 4.3419 -5.5179 29.7013
Li 10.2216 -5.5179 29.7013
Li 1.9900 -6.6938 29.7013
Li 7.8697 -6.6938 29.7013
Li 5.5179 -7.8697 29.7013
Li 11.3976 -7.8697 29.7013
Li 3.1660 -9.0457 29.7013
Li 9.0457 -9.0457 29.7013
Li 0.8141 -10.2216 29.7013
Li 6.6938 -10.2216 29.7013
Li 4.3419 -11.3976 29.7013
Li 10.2216 -11.3976 29.7013
O 6.1058 -0.2261 30.5526
O 9.6336 -1.4021 30.5526
O 1.4021 -2.5780 30.5526
O 4.9299 -3.7540 30.5526
O 8.4577 -4.9299 30.5526
O 0.2261 -6.1058 30.5526
O 3.7540 -7.2818 30.5526
O 7.2818 -8.4577 30.5526
O 10.8096 -9.6336 30.5526
O 2.5780 -10.8096 30.5526
