855
XYZ file generated by QuantumATK for match 32
O 1.9000 -0.8828 1.0000
O 9.1928 -0.8828 1.0000
O 16.4857 -0.8828 1.0000
O 4.8171 -2.3414 1.0000
O 12.1100 -2.3414 1.0000
O 19.4028 -2.3414 1.0000
O 0.4414 -3.8000 1.0000
O 7.7343 -3.8000 1.0000
O 15.0271 -3.8000 1.0000
O 3.3586 -5.2585 1.0000
O 10.6514 -5.2585 1.0000
O 17.9443 -5.2585 1.0000
O -1.0172 -6.7171 1.0000
O 6.2757 -6.7171 1.0000
O 13.5686 -6.7171 1.0000
O 1.9000 -8.1757 1.0000
O 9.1928 -8.1757 1.0000
O 16.4857 -8.1757 1.0000
O -2.4757 -9.6343 1.0000
O 4.8171 -9.6343 1.0000
O 12.1100 -9.6343 1.0000
O 0.4414 -11.0928 1.0000
O 7.7343 -11.0928 1.0000
O 15.0271 -11.0928 1.0000
Li 0.4414 -0.1535 2.1531
Li 7.7343 -0.1535 2.1531
Li 15.0271 -0.1535 2.1531
Li 5.5464 -0.8828 2.1531
Li 12.8393 -0.8828 2.1531
Li 20.1321 -0.8828 2.1531
Li 3.3586 -1.6121 2.1531
Li 10.6514 -1.6121 2.1531
Li 17.9443 -1.6121 2.1531
Li 1.1707 -2.3414 2.1531
Li 8.4636 -2.3414 2.1531
Li 15.7564 -2.3414 2.1531
Li -1.0172 -3.0707 2.1531
Li 6.2757 -3.0707 2.1531
Li 13.5686 -3.0707 2.1531
Li 4.0878 -3.8000 2.1531
Li 11.3807 -3.8000 2.1531
Li 18.6736 -3.8000 2.1531
Li 1.9000 -4.5293 2.1531
Li 9.1928 -4.5293 2.1531
Li 16.4857 -4.5293 2.1531
Li -0.2879 -5.2585 2.1531
Li 7.0050 -5.2585 2.1531
Li 14.2978 -5.2585 2.1531
Li -2.4757 -5.9878 2.1531
Li 4.8171 -5.9878 2.1531
Li 12.1100 -5.9878 2.1531
Li 2.6293 -6.7171 2.1531
Li 9.9221 -6.7171 2.1531
Li 17.2150 -6.7171 2.1531
Li 0.4414 -7.4464 2.1531
Li 7.7343 -7.4464 2.1531
Li 15.0271 -7.4464 2.1531
Li -1.7464 -8.1757 2.1531
Li 5.5464 -8.1757 2.1531
Li 12.8393 -8.1757 2.1531
Li -3.9343 -8.9050 2.1531
Li 3.3586 -8.9050 2.1531
Li 10.6514 -8.9050 2.1531
Li 1.1707 -9.6343 2.1531
Li 8.4636 -9.6343 2.1531
Li 15.7564 -9.6343 2.1531
Li -1.0172 -10.3635 2.1531
Li 6.2757 -10.3635 2.1531
Li 13.5686 -10.3635 2.1531
Li -3.2050 -11.0928 2.1531
Li 4.0878 -11.0928 2.1531
Li 11.3807 -11.0928 2.1531
O 4.0878 -0.1535 3.3062
O 11.3807 -0.1535 3.3062
O 18.6736 -0.1535 3.3062
O -0.2879 -1.6121 3.3062
O 7.0050 -1.6121 3.3062
O 14.2978 -1.6121 3.3062
O 2.6293 -3.0707 3.3062
O 9.9221 -3.0707 3.3062
O 17.2150 -3.0707 3.3062
O -1.7464 -4.5293 3.3062
O 5.5464 -4.5293 3.3062
O 12.8393 -4.5293 3.3062
O 1.1707 -5.9878 3.3062
O 8.4636 -5.9878 3.3062
O 15.7564 -5.9878 3.3062
O -3.2050 -7.4464 3.3062
O 4.0878 -7.4464 3.3062
O 11.3807 -7.4464 3.3062
O -0.2879 -8.9050 3.3062
O 7.0050 -8.9050 3.3062
O 14.2978 -8.9050 3.3062
O -4.6636 -10.3635 3.3062
O 2.6293 -10.3635 3.3062
O 9.9221 -10.3635 3.3062
Li 0.4414 -0.1535 4.4593
Li 7.7343 -0.1535 4.4593
Li 15.0271 -0.1535 4.4593
Li 5.5464 -0.8828 4.4593
Li 12.8393 -0.8828 4.4593
Li 20.1321 -0.8828 4.4593
Li 3.3586 -1.6121 4.4593
Li 10.6514 -1.6121 4.4593
Li 17.9443 -1.6121 4.4593
Li 1.1707 -2.3414 4.4593
Li 8.4636 -2.3414 4.4593
Li 15.7564 -2.3414 4.4593
Li -1.0172 -3.0707 4.4593
Li 6.2757 -3.0707 4.4593
Li 13.5686 -3.0707 4.4593
Li 4.0878 -3.8000 4.4593
Li 11.3807 -3.8000 4.4593
Li 18.6736 -3.8000 4.4593
Li 1.9000 -4.5293 4.4593
Li 9.1928 -4.5293 4.4593
Li 16.4857 -4.5293 4.4593
Li -0.2879 -5.2585 4.4593
Li 7.0050 -5.2585 4.4593
Li 14.2978 -5.2585 4.4593
Li -2.4757 -5.9878 4.4593
Li 4.8171 -5.9878 4.4593
Li 12.1100 -5.9878 4.4593
Li 2.6293 -6.7171 4.4593
Li 9.9221 -6.7171 4.4593
Li 17.2150 -6.7171 4.4593
Li 0.4414 -7.4464 4.4593
Li 7.7343 -7.4464 4.4593
Li 15.0271 -7.4464 4.4593
Li -1.7464 -8.1757 4.4593
Li 5.5464 -8.1757 4.4593
Li 12.8393 -8.1757 4.4593
Li -3.9343 -8.9050 4.4593
Li 3.3586 -8.9050 4.4593
Li 10.6514 -8.9050 4.4593
Li 1.1707 -9.6343 4.4593
Li 8.4636 -9.6343 4.4593
Li 15.7564 -9.6343 4.4593
Li -1.0172 -10.3635 4.4593
Li 6.2757 -10.3635 4.4593
Li 13.5686 -10.3635 4.4593
Li -3.2050 -11.0928 4.4593
Li 4.0878 -11.0928 4.4593
Li 11.3807 -11.0928 4.4593
O 1.9000 -0.8828 5.6124
O 9.1928 -0.8828 5.6124
O 16.4857 -0.8828 5.6124
O 4.8171 -2.3414 5.6124
O 12.1100 -2.3414 5.6124
O 19.4028 -2.3414 5.6124
O 0.4414 -3.8000 5.6124
O 7.7343 -3.8000 5.6124
O 15.0271 -3.8000 5.6124
O 3.3586 -5.2585 5.6124
O 10.6514 -5.2585 5.6124
O 17.9443 -5.2585 5.6124
O -1.0172 -6.7171 5.6124
O 6.2757 -6.7171 5.6124
O 13.5686 -6.7171 5.6124
O 1.9000 -8.1757 5.6124
O 9.1928 -8.1757 5.6124
O 16.4857 -8.1757 5.6124
O -2.4757 -9.6343 5.6124
O 4.8171 -9.6343 5.6124
O 12.1100 -9.6343 5.6124
O 0.4414 -11.0928 5.6124
O 7.7343 -11.0928 5.6124
O 15.0271 -11.0928 5.6124
Li 0.4414 -0.1535 6.7655
Li 7.7343 -0.1535 6.7655
Li 15.0271 -0.1535 6.7655
Li 5.5464 -0.8828 6.7655
Li 12.8393 -0.8828 6.7655
Li 20.1321 -0.8828 6.7655
Li 3.3586 -1.6121 6.7655
Li 10.6514 -1.6121 6.7655
Li 17.9443 -1.6121 6.7655
Li 1.1707 -2.3414 6.7655
Li 8.4636 -2.3414 6.7655
Li 15.7564 -2.3414 6.7655
Li -1.0172 -3.0707 6.7655
Li 6.2757 -3.0707 6.7655
Li 13.5686 -3.0707 6.7655
Li 4.0878 -3.8000 6.7655
Li 11.3807 -3.8000 6.7655
Li 18.6736 -3.8000 6.7655
Li 1.9000 -4.5293 6.7655
Li 9.1928 -4.5293 6.7655
Li 16.4857 -4.5293 6.7655
Li -0.2879 -5.2585 6.7655
Li 7.0050 -5.2585 6.7655
Li 14.2978 -5.2585 6.7655
Li -2.4757 -5.9878 6.7655
Li 4.8171 -5.9878 6.7655
Li 12.1100 -5.9878 6.7655
Li 2.6293 -6.7171 6.7655
Li 9.9221 -6.7171 6.7655
Li 17.2150 -6.7171 6.7655
Li 0.4414 -7.4464 6.7655
Li 7.7343 -7.4464 6.7655
Li 15.0271 -7.4464 6.7655
Li -1.7464 -8.1757 6.7655
Li 5.5464 -8.1757 6.7655
Li 12.8393 -8.1757 6.7655
Li -3.9343 -8.9050 6.7655
Li 3.3586 -8.9050 6.7655
Li 10.6514 -8.9050 6.7655
Li 1.1707 -9.6343 6.7655
Li 8.4636 -9.6343 6.7655
Li 15.7564 -9.6343 6.7655
Li -1.0172 -10.3635 6.7655
Li 6.2757 -10.3635 6.7655
Li 13.5686 -10.3635 6.7655
Li -3.2050 -11.0928 6.7655
Li 4.0878 -11.0928 6.7655
Li 11.3807 -11.0928 6.7655
O 4.0878 -0.1535 7.9186
O 11.3807 -0.1535 7.9186
O 18.6736 -0.1535 7.9186
O -0.2879 -1.6121 7.9186
O 7.0050 -1.6121 7.9186
O 14.2978 -1.6121 7.9186
O 2.6293 -3.0707 7.9186
O 9.9221 -3.0707 7.9186
O 17.2150 -3.0707 7.9186
O -1.7464 -4.5293 7.9186
O 5.5464 -4.5293 7.9186
O 12.8393 -4.5293 7.9186
O 1.1707 -5.9878 7.9186
O 8.4636 -5.9878 7.9186
O 15.7564 -5.9878 7.9186
O -3.2050 -7.4464 7.9186
O 4.0878 -7.4464 7.9186
O 11.3807 -7.4464 7.9186
O -0.2879 -8.9050 7.9186
O 7.0050 -8.9050 7.9186
O 14.2978 -8.9050 7.9186
O -4.6636 -10.3635 7.9186
O 2.6293 -10.3635 7.9186
O 9.9221 -10.3635 7.9186
Li 0.4414 -0.1535 9.0717
Li 7.7343 -0.1535 9.0717
Li 15.0271 -0.1535 9.0717
Li 5.5464 -0.8828 9.0717
Li 12.8393 -0.8828 9.0717
Li 20.1321 -0.8828 9.0717
Li 3.3586 -1.6121 9.0717
Li 10.6514 -1.6121 9.0717
Li 17.9443 -1.6121 9.0717
Li 1.1707 -2.3414 9.0717
Li 8.4636 -2.3414 9.0717
Li 15.7564 -2.3414 9.0717
Li -1.0172 -3.0707 9.0717
Li 6.2757 -3.0707 9.0717
Li 13.5686 -3.0707 9.0717
Li 4.0878 -3.8000 9.0717
Li 11.3807 -3.8000 9.0717
Li 18.6736 -3.8000 9.0717
Li 1.9000 -4.5293 9.0717
Li 9.1928 -4.5293 9.0717
Li 16.4857 -4.5293 9.0717
Li -0.2879 -5.2585 9.0717
Li 7.0050 -5.2585 9.0717
Li 14.2978 -5.2585 9.0717
Li -2.4757 -5.9878 9.0717
Li 4.8171 -5.9878 9.0717
Li 12.1100 -5.9878 9.0717
Li 2.6293 -6.7171 9.0717
Li 9.9221 -6.7171 9.0717
Li 17.2150 -6.7171 9.0717
Li 0.4414 -7.4464 9.0717
Li 7.7343 -7.4464 9.0717
Li 15.0271 -7.4464 9.0717
Li -1.7464 -8.1757 9.0717
Li 5.5464 -8.1757 9.0717
Li 12.8393 -8.1757 9.0717
Li -3.9343 -8.9050 9.0717
Li 3.3586 -8.9050 9.0717
Li 10.6514 -8.9050 9.0717
Li 1.1707 -9.6343 9.0717
Li 8.4636 -9.6343 9.0717
Li 15.7564 -9.6343 9.0717
Li -1.0172 -10.3635 9.0717
Li 6.2757 -10.3635 9.0717
Li 13.5686 -10.3635 9.0717
Li -3.2050 -11.0928 9.0717
Li 4.0878 -11.0928 9.0717
Li 11.3807 -11.0928 9.0717
O 1.9000 -0.8828 10.2248
O 9.1928 -0.8828 10.2248
O 16.4857 -0.8828 10.2248
O 4.8171 -2.3414 10.2248
O 12.1100 -2.3414 10.2248
O 19.4028 -2.3414 10.2248
O 0.4414 -3.8000 10.2248
O 7.7343 -3.8000 10.2248
O 15.0271 -3.8000 10.2248
O 3.3586 -5.2585 10.2248
O 10.6514 -5.2585 10.2248
O 17.9443 -5.2585 10.2248
O -1.0172 -6.7171 10.2248
O 6.2757 -6.7171 10.2248
O 13.5686 -6.7171 10.2248
O 1.9000 -8.1757 10.2248
O 9.1928 -8.1757 10.2248
O 16.4857 -8.1757 10.2248
O -2.4757 -9.6343 10.2248
O 4.8171 -9.6343 10.2248
O 12.1100 -9.6343 10.2248
O 0.4414 -11.0928 10.2248
O 7.7343 -11.0928 10.2248
O 15.0271 -11.0928 10.2248
Li 0.4414 -0.1535 11.3779
Li 7.7343 -0.1535 11.3779
Li 15.0271 -0.1535 11.3779
Li 5.5464 -0.8828 11.3779
Li 12.8393 -0.8828 11.3779
Li 20.1321 -0.8828 11.3779
Li 3.3586 -1.6121 11.3779
Li 10.6514 -1.6121 11.3779
Li 17.9443 -1.6121 11.3779
Li 1.1707 -2.3414 11.3779
Li 8.4636 -2.3414 11.3779
Li 15.7564 -2.3414 11.3779
Li -1.0172 -3.0707 11.3779
Li 6.2757 -3.0707 11.3779
Li 13.5686 -3.0707 11.3779
Li 4.0878 -3.8000 11.3779
Li 11.3807 -3.8000 11.3779
Li 18.6736 -3.8000 11.3779
Li 1.9000 -4.5293 11.3779
Li 9.1928 -4.5293 11.3779
Li 16.4857 -4.5293 11.3779
Li -0.2879 -5.2585 11.3779
Li 7.0050 -5.2585 11.3779
Li 14.2978 -5.2585 11.3779
Li -2.4757 -5.9878 11.3779
Li 4.8171 -5.9878 11.3779
Li 12.1100 -5.9878 11.3779
Li 2.6293 -6.7171 11.3779
Li 9.9221 -6.7171 11.3779
Li 17.2150 -6.7171 11.3779
Li 0.4414 -7.4464 11.3779
Li 7.7343 -7.4464 11.3779
Li 15.0271 -7.4464 11.3779
Li -1.7464 -8.1757 11.3779
Li 5.5464 -8.1757 11.3779
Li 12.8393 -8.1757 11.3779
Li -3.9343 -8.9050 11.3779
Li 3.3586 -8.9050 11.3779
Li 10.6514 -8.9050 11.3779
Li 1.1707 -9.6343 11.3779
Li 8.4636 -9.6343 11.3779
Li 15.7564 -9.6343 11.3779
Li -1.0172 -10.3635 11.3779
Li 6.2757 -10.3635 11.3779
Li 13.5686 -10.3635 11.3779
Li -3.2050 -11.0928 11.3779
Li 4.0878 -11.0928 11.3779
Li 11.3807 -11.0928 11.3779
O 4.0878 -0.1535 12.5310
O 11.3807 -0.1535 12.5310
O 18.6736 -0.1535 12.5310
O -0.2879 -1.6121 12.5310
O 7.0050 -1.6121 12.5310
O 14.2978 -1.6121 12.5310
O 2.6293 -3.0707 12.5310
O 9.9221 -3.0707 12.5310
O 17.2150 -3.0707 12.5310
O -1.7464 -4.5293 12.5310
O 5.5464 -4.5293 12.5310
O 12.8393 -4.5293 12.5310
O 1.1707 -5.9878 12.5310
O 8.4636 -5.9878 12.5310
O 15.7564 -5.9878 12.5310
O -3.2050 -7.4464 12.5310
O 4.0878 -7.4464 12.5310
O 11.3807 -7.4464 12.5310
O -0.2879 -8.9050 12.5310
O 7.0050 -8.9050 12.5310
O 14.2978 -8.9050 12.5310
O -4.6636 -10.3635 12.5310
O 2.6293 -10.3635 12.5310
O 9.9221 -10.3635 12.5310
Li 0.4414 -0.1535 13.6841
Li 7.7343 -0.1535 13.6841
Li 15.0271 -0.1535 13.6841
Li 5.5464 -0.8828 13.6841
Li 12.8393 -0.8828 13.6841
Li 20.1321 -0.8828 13.6841
Li 3.3586 -1.6121 13.6841
Li 10.6514 -1.6121 13.6841
Li 17.9443 -1.6121 13.6841
Li 1.1707 -2.3414 13.6841
Li 8.4636 -2.3414 13.6841
Li 15.7564 -2.3414 13.6841
Li -1.0172 -3.0707 13.6841
Li 6.2757 -3.0707 13.6841
Li 13.5686 -3.0707 13.6841
Li 4.0878 -3.8000 13.6841
Li 11.3807 -3.8000 13.6841
Li 18.6736 -3.8000 13.6841
Li 1.9000 -4.5293 13.6841
Li 9.1928 -4.5293 13.6841
Li 16.4857 -4.5293 13.6841
Li -0.2879 -5.2585 13.6841
Li 7.0050 -5.2585 13.6841
Li 14.2978 -5.2585 13.6841
Li -2.4757 -5.9878 13.6841
Li 4.8171 -5.9878 13.6841
Li 12.1100 -5.9878 13.6841
Li 2.6293 -6.7171 13.6841
Li 9.9221 -6.7171 13.6841
Li 17.2150 -6.7171 13.6841
Li 0.4414 -7.4464 13.6841
Li 7.7343 -7.4464 13.6841
Li 15.0271 -7.4464 13.6841
Li -1.7464 -8.1757 13.6841
Li 5.5464 -8.1757 13.6841
Li 12.8393 -8.1757 13.6841
Li -3.9343 -8.9050 13.6841
Li 3.3586 -8.9050 13.6841
Li 10.6514 -8.9050 13.6841
Li 1.1707 -9.6343 13.6841
Li 8.4636 -9.6343 13.6841
Li 15.7564 -9.6343 13.6841
Li -1.0172 -10.3635 13.6841
Li 6.2757 -10.3635 13.6841
Li 13.5686 -10.3635 13.6841
Li -3.2050 -11.0928 13.6841
Li 4.0878 -11.0928 13.6841
Li 11.3807 -11.0928 13.6841
O 1.9000 -0.8828 14.8372
O 9.1928 -0.8828 14.8372
O 16.4857 -0.8828 14.8372
O 4.8171 -2.3414 14.8372
O 12.1100 -2.3414 14.8372
O 19.4028 -2.3414 14.8372
O 0.4414 -3.8000 14.8372
O 7.7343 -3.8000 14.8372
O 15.0271 -3.8000 14.8372
O 3.3586 -5.2585 14.8372
O 10.6514 -5.2585 14.8372
O 17.9443 -5.2585 14.8372
O -1.0172 -6.7171 14.8372
O 6.2757 -6.7171 14.8372
O 13.5686 -6.7171 14.8372
O 1.9000 -8.1757 14.8372
O 9.1928 -8.1757 14.8372
O 16.4857 -8.1757 14.8372
O -2.4757 -9.6343 14.8372
O 4.8171 -9.6343 14.8372
O 12.1100 -9.6343 14.8372
O 0.4414 -11.0928 14.8372
O 7.7343 -11.0928 14.8372
O 15.0271 -11.0928 14.8372
Li 7.1969 -0.4606 16.4667
Li 18.1362 -0.4606 16.4667
Li 9.7686 -1.0747 16.4667
Li 20.7079 -1.0747 16.4667
Li 1.4010 -1.6889 16.4667
Li 12.3403 -1.6889 16.4667
Li 3.9727 -2.3030 16.4667
Li 14.9120 -2.3030 16.4667
Li 6.5444 -2.9171 16.4667
Li 17.4837 -2.9171 16.4667
Li 9.1161 -3.5313 16.4667
Li 20.0554 -3.5313 16.4667
Li 0.7485 -4.1454 16.4667
Li 11.6878 -4.1454 16.4667
Li 3.3202 -4.7596 16.4667
Li 14.2595 -4.7596 16.4667
Li 5.8919 -5.3737 16.4667
Li 16.8312 -5.3737 16.4667
Li -2.4757 -5.9878 16.4667
Li 8.4636 -5.9878 16.4667
Li 0.0960 -6.6020 16.4667
Li 11.0352 -6.6020 16.4667
Li 2.6677 -7.2161 16.4667
Li 13.6069 -7.2161 16.4667
Li 5.2393 -7.8302 16.4667
Li 16.1786 -7.8302 16.4667
Li -3.1283 -8.4444 16.4667
Li 7.8110 -8.4444 16.4667
Li -0.5566 -9.0585 16.4667
Li 10.3827 -9.0585 16.4667
Li 2.0151 -9.6726 16.4667
Li 12.9544 -9.6726 16.4667
Li 4.5868 -10.2868 16.4667
Li 15.5261 -10.2868 16.4667
Li -3.7808 -10.9009 16.4667
Li 7.1585 -10.9009 16.4667
Li -1.2091 -11.5150 16.4667
Li 9.7302 -11.5150 16.4667
O 11.3807 -0.1535 17.3180
O 3.0131 -0.7677 17.3180
O 16.5241 -1.3818 17.3180
O 8.1565 -1.9959 17.3180
O -0.2111 -2.6101 17.3180
O 13.2999 -3.2242 17.3180
O 4.9323 -3.8383 17.3180
O 18.4433 -4.4525 17.3180
O 10.0757 -5.0666 17.3180
O 1.7081 -5.6808 17.3180
O 15.2190 -6.2949 17.3180
O 6.8515 -6.9090 17.3180
O -1.5161 -7.5232 17.3180
O 11.9948 -8.1373 17.3180
O 3.6272 -8.7514 17.3180
O 17.1382 -9.3656 17.3180
O 8.7706 -9.9797 17.3180
O 0.4030 -10.5938 17.3180
O 13.9140 -11.2080 17.3180
H 11.3807 -0.1535 18.2881
H 3.0131 -0.7677 18.2881
H 16.5241 -1.3818 18.2881
H 8.1565 -1.9959 18.2881
H -0.2111 -2.6101 18.2881
H 13.2999 -3.2242 18.2881
H 4.9323 -3.8383 18.2881
H 18.4433 -4.4525 18.2881
H 10.0757 -5.0666 18.2881
H 1.7081 -5.6808 18.2881
H 15.2190 -6.2949 18.2881
H 6.8515 -6.9090 18.2881
H -1.5161 -7.5232 18.2881
H 11.9948 -8.1373 18.2881
H 3.6272 -8.7514 18.2881
H 17.1382 -9.3656 18.2881
H 8.7706 -9.9797 18.2881
H 0.4030 -10.5938 18.2881
H 13.9140 -11.2080 18.2881
H 0.4414 -0.1535 19.0557
H 13.9524 -0.7677 19.0557
H 5.5848 -1.3818 19.0557
H 19.0958 -1.9959 19.0557
H 10.7282 -2.6101 19.0557
H 2.3606 -3.2242 19.0557
H 15.8716 -3.8383 19.0557
H 7.5040 -4.4525 19.0557
H -0.8636 -5.0666 19.0557
H 12.6474 -5.6808 19.0557
H 4.2798 -6.2949 19.0557
H 17.7907 -6.9090 19.0557
H 9.4231 -7.5232 19.0557
H 1.0555 -8.1373 19.0557
H 14.5665 -8.7514 19.0557
H 6.1989 -9.3656 19.0557
H -2.1687 -9.9797 19.0557
H 11.3423 -10.5938 19.0557
H 2.9747 -11.2080 19.0557
O 0.4414 -0.1535 20.0258
O 13.9524 -0.7677 20.0258
O 5.5848 -1.3818 20.0258
O 19.0958 -1.9959 20.0258
O 10.7282 -2.6101 20.0258
O 2.3606 -3.2242 20.0258
O 15.8716 -3.8383 20.0258
O 7.5040 -4.4525 20.0258
O -0.8636 -5.0666 20.0258
O 12.6474 -5.6808 20.0258
O 4.2798 -6.2949 20.0258
O 17.7907 -6.9090 20.0258
O 9.4231 -7.5232 20.0258
O 1.0555 -8.1373 20.0258
O 14.5665 -8.7514 20.0258
O 6.1989 -9.3656 20.0258
O -2.1687 -9.9797 20.0258
O 11.3423 -10.5938 20.0258
O 2.9747 -11.2080 20.0258
Li 7.1969 -0.4606 20.8771
Li 18.1362 -0.4606 20.8771
Li 9.7686 -1.0747 20.8771
Li 20.7079 -1.0747 20.8771
Li 1.4010 -1.6889 20.8771
Li 12.3403 -1.6889 20.8771
Li 3.9727 -2.3030 20.8771
Li 14.9120 -2.3030 20.8771
Li 6.5444 -2.9171 20.8771
Li 17.4837 -2.9171 20.8771
Li 9.1161 -3.5313 20.8771
Li 20.0554 -3.5313 20.8771
Li 0.7485 -4.1454 20.8771
Li 11.6878 -4.1454 20.8771
Li 3.3202 -4.7596 20.8771
Li 14.2595 -4.7596 20.8771
Li 5.8919 -5.3737 20.8771
Li 16.8312 -5.3737 20.8771
Li -2.4757 -5.9878 20.8771
Li 8.4636 -5.9878 20.8771
Li 0.0960 -6.6020 20.8771
Li 11.0352 -6.6020 20.8771
Li 2.6677 -7.2161 20.8771
Li 13.6069 -7.2161 20.8771
Li 5.2393 -7.8302 20.8771
Li 16.1786 -7.8302 20.8771
Li -3.1283 -8.4444 20.8771
Li 7.8110 -8.4444 20.8771
Li -0.5566 -9.0585 20.8771
Li 10.3827 -9.0585 20.8771
Li 2.0151 -9.6726 20.8771
Li 12.9544 -9.6726 20.8771
Li 4.5868 -10.2868 20.8771
Li 15.5261 -10.2868 20.8771
Li -3.7808 -10.9009 20.8771
Li 7.1585 -10.9009 20.8771
Li -1.2091 -11.5150 20.8771
Li 9.7302 -11.5150 20.8771
O 11.3807 -0.1535 21.7284
O 3.0131 -0.7677 21.7284
O 16.5241 -1.3818 21.7284
O 8.1565 -1.9959 21.7284
O -0.2111 -2.6101 21.7284
O 13.2999 -3.2242 21.7284
O 4.9323 -3.8383 21.7284
O 18.4433 -4.4525 21.7284
O 10.0757 -5.0666 21.7284
O 1.7081 -5.6808 21.7284
O 15.2190 -6.2949 21.7284
O 6.8515 -6.9090 21.7284
O -1.5161 -7.5232 21.7284
O 11.9948 -8.1373 21.7284
O 3.6272 -8.7514 21.7284
O 17.1382 -9.3656 21.7284
O 8.7706 -9.9797 21.7284
O 0.4030 -10.5938 21.7284
O 13.9140 -11.2080 21.7284
H 11.3807 -0.1535 22.6985
H 3.0131 -0.7677 22.6985
H 16.5241 -1.3818 22.6985
H 8.1565 -1.9959 22.6985
H -0.2111 -2.6101 22.6985
H 13.2999 -3.2242 22.6985
H 4.9323 -3.8383 22.6985
H 18.4433 -4.4525 22.6985
H 10.0757 -5.0666 22.6985
H 1.7081 -5.6808 22.6985
H 15.2190 -6.2949 22.6985
H 6.8515 -6.9090 22.6985
H -1.5161 -7.5232 22.6985
H 11.9948 -8.1373 22.6985
H 3.6272 -8.7514 22.6985
H 17.1382 -9.3656 22.6985
H 8.7706 -9.9797 22.6985
H 0.4030 -10.5938 22.6985
H 13.9140 -11.2080 22.6985
H 0.4414 -0.1535 23.4662
H 13.9524 -0.7677 23.4662
H 5.5848 -1.3818 23.4662
H 19.0958 -1.9959 23.4662
H 10.7282 -2.6101 23.4662
H 2.3606 -3.2242 23.4662
H 15.8716 -3.8383 23.4662
H 7.5040 -4.4525 23.4662
H -0.8636 -5.0666 23.4662
H 12.6474 -5.6808 23.4662
H 4.2798 -6.2949 23.4662
H 17.7907 -6.9090 23.4662
H 9.4231 -7.5232 23.4662
H 1.0555 -8.1373 23.4662
H 14.5665 -8.7514 23.4662
H 6.1989 -9.3656 23.4662
H -2.1687 -9.9797 23.4662
H 11.3423 -10.5938 23.4662
H 2.9747 -11.2080 23.4662
O 0.4414 -0.1535 24.4363
O 13.9524 -0.7677 24.4363
O 5.5848 -1.3818 24.4363
O 19.0958 -1.9959 24.4363
O 10.7282 -2.6101 24.4363
O 2.3606 -3.2242 24.4363
O 15.8716 -3.8383 24.4363
O 7.5040 -4.4525 24.4363
O -0.8636 -5.0666 24.4363
O 12.6474 -5.6808 24.4363
O 4.2798 -6.2949 24.4363
O 17.7907 -6.9090 24.4363
O 9.4231 -7.5232 24.4363
O 1.0555 -8.1373 24.4363
O 14.5665 -8.7514 24.4363
O 6.1989 -9.3656 24.4363
O -2.1687 -9.9797 24.4363
O 11.3423 -10.5938 24.4363
O 2.9747 -11.2080 24.4363
Li 7.1969 -0.4606 25.2876
Li 18.1362 -0.4606 25.2876
Li 9.7686 -1.0747 25.2876
Li 20.7079 -1.0747 25.2876
Li 1.4010 -1.6889 25.2876
Li 12.3403 -1.6889 25.2876
Li 3.9727 -2.3030 25.2876
Li 14.9120 -2.3030 25.2876
Li 6.5444 -2.9171 25.2876
Li 17.4837 -2.9171 25.2876
Li 9.1161 -3.5313 25.2876
Li 20.0554 -3.5313 25.2876
Li 0.7485 -4.1454 25.2876
Li 11.6878 -4.1454 25.2876
Li 3.3202 -4.7596 25.2876
Li 14.2595 -4.7596 25.2876
Li 5.8919 -5.3737 25.2876
Li 16.8312 -5.3737 25.2876
Li -2.4757 -5.9878 25.2876
Li 8.4636 -5.9878 25.2876
Li 0.0960 -6.6020 25.2876
Li 11.0352 -6.6020 25.2876
Li 2.6677 -7.2161 25.2876
Li 13.6069 -7.2161 25.2876
Li 5.2393 -7.8302 25.2876
Li 16.1786 -7.8302 25.2876
Li -3.1283 -8.4444 25.2876
Li 7.8110 -8.4444 25.2876
Li -0.5566 -9.0585 25.2876
Li 10.3827 -9.0585 25.2876
Li 2.0151 -9.6726 25.2876
Li 12.9544 -9.6726 25.2876
Li 4.5868 -10.2868 25.2876
Li 15.5261 -10.2868 25.2876
Li -3.7808 -10.9009 25.2876
Li 7.1585 -10.9009 25.2876
Li -1.2091 -11.5150 25.2876
Li 9.7302 -11.5150 25.2876
O 11.3807 -0.1535 26.1389
O 3.0131 -0.7677 26.1389
O 16.5241 -1.3818 26.1389
O 8.1565 -1.9959 26.1389
O -0.2111 -2.6101 26.1389
O 13.2999 -3.2242 26.1389
O 4.9323 -3.8383 26.1389
O 18.4433 -4.4525 26.1389
O 10.0757 -5.0666 26.1389
O 1.7081 -5.6808 26.1389
O 15.2190 -6.2949 26.1389
O 6.8515 -6.9090 26.1389
O -1.5161 -7.5232 26.1389
O 11.9948 -8.1373 26.1389
O 3.6272 -8.7514 26.1389
O 17.1382 -9.3656 26.1389
O 8.7706 -9.9797 26.1389
O 0.4030 -10.5938 26.1389
O 13.9140 -11.2080 26.1389
H 11.3807 -0.1535 27.1090
H 3.0131 -0.7677 27.1090
H 16.5241 -1.3818 27.1090
H 8.1565 -1.9959 27.1090
H -0.2111 -2.6101 27.1090
H 13.2999 -3.2242 27.1090
H 4.9323 -3.8383 27.1090
H 18.4433 -4.4525 27.1090
H 10.0757 -5.0666 27.1090
H 1.7081 -5.6808 27.1090
H 15.2190 -6.2949 27.1090
H 6.8515 -6.9090 27.1090
H -1.5161 -7.5232 27.1090
H 11.9948 -8.1373 27.1090
H 3.6272 -8.7514 27.1090
H 17.1382 -9.3656 27.1090
H 8.7706 -9.9797 27.1090
H 0.4030 -10.5938 27.1090
H 13.9140 -11.2080 27.1090
H 0.4414 -0.1535 27.8767
H 13.9524 -0.7677 27.8767
H 5.5848 -1.3818 27.8767
H 19.0958 -1.9959 27.8767
H 10.7282 -2.6101 27.8767
H 2.3606 -3.2242 27.8767
H 15.8716 -3.8383 27.8767
H 7.5040 -4.4525 27.8767
H -0.8636 -5.0666 27.8767
H 12.6474 -5.6808 27.8767
H 4.2798 -6.2949 27.8767
H 17.7907 -6.9090 27.8767
H 9.4231 -7.5232 27.8767
H 1.0555 -8.1373 27.8767
H 14.5665 -8.7514 27.8767
H 6.1989 -9.3656 27.8767
H -2.1687 -9.9797 27.8767
H 11.3423 -10.5938 27.8767
H 2.9747 -11.2080 27.8767
O 0.4414 -0.1535 28.8467
O 13.9524 -0.7677 28.8467
O 5.5848 -1.3818 28.8467
O 19.0958 -1.9959 28.8467
O 10.7282 -2.6101 28.8467
O 2.3606 -3.2242 28.8467
O 15.8716 -3.8383 28.8467
O 7.5040 -4.4525 28.8467
O -0.8636 -5.0666 28.8467
O 12.6474 -5.6808 28.8467
O 4.2798 -6.2949 28.8467
O 17.7907 -6.9090 28.8467
O 9.4231 -7.5232 28.8467
O 1.0555 -8.1373 28.8467
O 14.5665 -8.7514 28.8467
O 6.1989 -9.3656 28.8467
O -2.1687 -9.9797 28.8467
O 11.3423 -10.5938 28.8467
O 2.9747 -11.2080 28.8467
Li 7.1969 -0.4606 29.6981
Li 18.1362 -0.4606 29.6981
Li 9.7686 -1.0747 29.6981
Li 20.7079 -1.0747 29.6981
Li 1.4010 -1.6889 29.6981
Li 12.3403 -1.6889 29.6981
Li 3.9727 -2.3030 29.6981
Li 14.9120 -2.3030 29.6981
Li 6.5444 -2.9171 29.6981
Li 17.4837 -2.9171 29.6981
Li 9.1161 -3.5313 29.6981
Li 20.0554 -3.5313 29.6981
Li 0.7485 -4.1454 29.6981
Li 11.6878 -4.1454 29.6981
Li 3.3202 -4.7596 29.6981
Li 14.2595 -4.7596 29.6981
Li 5.8919 -5.3737 29.6981
Li 16.8312 -5.3737 29.6981
Li -2.4757 -5.9878 29.6981
Li 8.4636 -5.9878 29.6981
Li 0.0960 -6.6020 29.6981
Li 11.0352 -6.6020 29.6981
Li 2.6677 -7.2161 29.6981
Li 13.6069 -7.2161 29.6981
Li 5.2393 -7.8302 29.6981
Li 16.1786 -7.8302 29.6981
Li -3.1283 -8.4444 29.6981
Li 7.8110 -8.4444 29.6981
Li -0.5566 -9.0585 29.6981
Li 10.3827 -9.0585 29.6981
Li 2.0151 -9.6726 29.6981
Li 12.9544 -9.6726 29.6981
Li 4.5868 -10.2868 29.6981
Li 15.5261 -10.2868 29.6981
Li -3.7808 -10.9009 29.6981
Li 7.1585 -10.9009 29.6981
Li -1.2091 -11.5150 29.6981
Li 9.7302 -11.5150 29.6981
O 11.3807 -0.1535 30.5494
O 3.0131 -0.7677 30.5494
O 16.5241 -1.3818 30.5494
O 8.1565 -1.9959 30.5494
O -0.2111 -2.6101 30.5494
O 13.2999 -3.2242 30.5494
O 4.9323 -3.8383 30.5494
O 18.4433 -4.4525 30.5494
O 10.0757 -5.0666 30.5494
O 1.7081 -5.6808 30.5494
O 15.2190 -6.2949 30.5494
O 6.8515 -6.9090 30.5494
O -1.5161 -7.5232 30.5494
O 11.9948 -8.1373 30.5494
O 3.6272 -8.7514 30.5494
O 17.1382 -9.3656 30.5494
O 8.7706 -9.9797 30.5494
O 0.4030 -10.5938 30.5494
O 13.9140 -11.2080 30.5494
