617
XYZ file generated by QuantumATK for match 58
O 9.0846 -0.1514 1.0000
O 16.3523 -0.7570 1.0000
O 6.0564 -1.3627 1.0000
O 13.3241 -1.9683 1.0000
O 3.0282 -2.5740 1.0000
O 10.2959 -3.1796 1.0000
O 17.5635 -3.7852 1.0000
O 7.2677 -4.3909 1.0000
O 14.5353 -4.9965 1.0000
O 4.2395 -5.6022 1.0000
O 11.5071 -6.2078 1.0000
O 1.2113 -6.8134 1.0000
O 8.4789 -7.4191 1.0000
O 15.7466 -8.0247 1.0000
O 5.4508 -8.6304 1.0000
O 12.7184 -9.2360 1.0000
O 2.4226 -9.8416 1.0000
Li 0.3028 -0.1514 2.1531
Li 12.7184 -0.4542 2.1531
Li 7.5705 -0.7570 2.1531
Li 2.4226 -1.0599 2.1531
Li 14.8382 -1.3627 2.1531
Li 9.6902 -1.6655 2.1531
Li 4.5423 -1.9683 2.1531
Li 16.9579 -2.2711 2.1531
Li 11.8100 -2.5740 2.1531
Li 6.6620 -2.8768 2.1531
Li 1.5141 -3.1796 2.1531
Li 13.9297 -3.4824 2.1531
Li 8.7818 -3.7852 2.1531
Li 3.6338 -4.0881 2.1531
Li 16.0494 -4.3909 2.1531
Li 10.9015 -4.6937 2.1531
Li 5.7536 -4.9965 2.1531
Li 0.6056 -5.2993 2.1531
Li 13.0212 -5.6022 2.1531
Li 7.8733 -5.9050 2.1531
Li 2.7254 -6.2078 2.1531
Li 15.1410 -6.5106 2.1531
Li 9.9930 -6.8134 2.1531
Li 4.8451 -7.1163 2.1531
Li 17.2607 -7.4191 2.1531
Li 12.1128 -7.7219 2.1531
Li 6.9648 -8.0247 2.1531
Li 1.8169 -8.3275 2.1531
Li 14.2325 -8.6304 2.1531
Li 9.0846 -8.9332 2.1531
Li 3.9367 -9.2360 2.1531
Li 16.3523 -9.5388 2.1531
Li 11.2043 -9.8416 2.1531
Li 6.0564 -10.1445 2.1531
O 3.9367 -0.4542 3.3062
O 11.2043 -1.0599 3.3062
O 0.9085 -1.6655 3.3062
O 8.1761 -2.2711 3.3062
O 15.4438 -2.8768 3.3062
O 5.1479 -3.4824 3.3062
O 12.4156 -4.0881 3.3062
O 2.1197 -4.6937 3.3062
O 9.3874 -5.2993 3.3062
O 16.6551 -5.9050 3.3062
O 6.3592 -6.5106 3.3062
O 13.6269 -7.1163 3.3062
O 3.3310 -7.7219 3.3062
O 10.5987 -8.3275 3.3062
O 17.8664 -8.9332 3.3062
O 7.5705 -9.5388 3.3062
O 14.8382 -10.1445 3.3062
Li 0.3028 -0.1514 4.4593
Li 12.7184 -0.4542 4.4593
Li 7.5705 -0.7570 4.4593
Li 2.4226 -1.0599 4.4593
Li 14.8382 -1.3627 4.4593
Li 9.6902 -1.6655 4.4593
Li 4.5423 -1.9683 4.4593
Li 16.9579 -2.2711 4.4593
Li 11.8100 -2.5740 4.4593
Li 6.6620 -2.8768 4.4593
Li 1.5141 -3.1796 4.4593
Li 13.9297 -3.4824 4.4593
Li 8.7818 -3.7852 4.4593
Li 3.6338 -4.0881 4.4593
Li 16.0494 -4.3909 4.4593
Li 10.9015 -4.6937 4.4593
Li 5.7536 -4.9965 4.4593
Li 0.6056 -5.2993 4.4593
Li 13.0212 -5.6022 4.4593
Li 7.8733 -5.9050 4.4593
Li 2.7254 -6.2078 4.4593
Li 15.1410 -6.5106 4.4593
Li 9.9930 -6.8134 4.4593
Li 4.8451 -7.1163 4.4593
Li 17.2607 -7.4191 4.4593
Li 12.1128 -7.7219 4.4593
Li 6.9648 -8.0247 4.4593
Li 1.8169 -8.3275 4.4593
Li 14.2325 -8.6304 4.4593
Li 9.0846 -8.9332 4.4593
Li 3.9367 -9.2360 4.4593
Li 16.3523 -9.5388 4.4593
Li 11.2043 -9.8416 4.4593
Li 6.0564 -10.1445 4.4593
O 9.0846 -0.1514 5.6124
O 16.3523 -0.7570 5.6124
O 6.0564 -1.3627 5.6124
O 13.3241 -1.9683 5.6124
O 3.0282 -2.5740 5.6124
O 10.2959 -3.1796 5.6124
O 17.5635 -3.7852 5.6124
O 7.2677 -4.3909 5.6124
O 14.5353 -4.9965 5.6124
O 4.2395 -5.6022 5.6124
O 11.5071 -6.2078 5.6124
O 1.2113 -6.8134 5.6124
O 8.4789 -7.4191 5.6124
O 15.7466 -8.0247 5.6124
O 5.4508 -8.6304 5.6124
O 12.7184 -9.2360 5.6124
O 2.4226 -9.8416 5.6124
Li 0.3028 -0.1514 6.7655
Li 12.7184 -0.4542 6.7655
Li 7.5705 -0.7570 6.7655
Li 2.4226 -1.0599 6.7655
Li 14.8382 -1.3627 6.7655
Li 9.6902 -1.6655 6.7655
Li 4.5423 -1.9683 6.7655
Li 16.9579 -2.2711 6.7655
Li 11.8100 -2.5740 6.7655
Li 6.6620 -2.8768 6.7655
Li 1.5141 -3.1796 6.7655
Li 13.9297 -3.4824 6.7655
Li 8.7818 -3.7852 6.7655
Li 3.6338 -4.0881 6.7655
Li 16.0494 -4.3909 6.7655
Li 10.9015 -4.6937 6.7655
Li 5.7536 -4.9965 6.7655
Li 0.6056 -5.2993 6.7655
Li 13.0212 -5.6022 6.7655
Li 7.8733 -5.9050 6.7655
Li 2.7254 -6.2078 6.7655
Li 15.1410 -6.5106 6.7655
Li 9.9930 -6.8134 6.7655
Li 4.8451 -7.1163 6.7655
Li 17.2607 -7.4191 6.7655
Li 12.1128 -7.7219 6.7655
Li 6.9648 -8.0247 6.7655
Li 1.8169 -8.3275 6.7655
Li 14.2325 -8.6304 6.7655
Li 9.0846 -8.9332 6.7655
Li 3.9367 -9.2360 6.7655
Li 16.3523 -9.5388 6.7655
Li 11.2043 -9.8416 6.7655
Li 6.0564 -10.1445 6.7655
O 3.9367 -0.4542 7.9186
O 11.2043 -1.0599 7.9186
O 0.9085 -1.6655 7.9186
O 8.1761 -2.2711 7.9186
O 15.4438 -2.8768 7.9186
O 5.1479 -3.4824 7.9186
O 12.4156 -4.0881 7.9186
O 2.1197 -4.6937 7.9186
O 9.3874 -5.2993 7.9186
O 16.6551 -5.9050 7.9186
O 6.3592 -6.5106 7.9186
O 13.6269 -7.1163 7.9186
O 3.3310 -7.7219 7.9186
O 10.5987 -8.3275 7.9186
O 17.8664 -8.9332 7.9186
O 7.5705 -9.5388 7.9186
O 14.8382 -10.1445 7.9186
Li 0.3028 -0.1514 9.0717
Li 12.7184 -0.4542 9.0717
Li 7.5705 -0.7570 9.0717
Li 2.4226 -1.0599 9.0717
Li 14.8382 -1.3627 9.0717
Li 9.6902 -1.6655 9.0717
Li 4.5423 -1.9683 9.0717
Li 16.9579 -2.2711 9.0717
Li 11.8100 -2.5740 9.0717
Li 6.6620 -2.8768 9.0717
Li 1.5141 -3.1796 9.0717
Li 13.9297 -3.4824 9.0717
Li 8.7818 -3.7852 9.0717
Li 3.6338 -4.0881 9.0717
Li 16.0494 -4.3909 9.0717
Li 10.9015 -4.6937 9.0717
Li 5.7536 -4.9965 9.0717
Li 0.6056 -5.2993 9.0717
Li 13.0212 -5.6022 9.0717
Li 7.8733 -5.9050 9.0717
Li 2.7254 -6.2078 9.0717
Li 15.1410 -6.5106 9.0717
Li 9.9930 -6.8134 9.0717
Li 4.8451 -7.1163 9.0717
Li 17.2607 -7.4191 9.0717
Li 12.1128 -7.7219 9.0717
Li 6.9648 -8.0247 9.0717
Li 1.8169 -8.3275 9.0717
Li 14.2325 -8.6304 9.0717
Li 9.0846 -8.9332 9.0717
Li 3.9367 -9.2360 9.0717
Li 16.3523 -9.5388 9.0717
Li 11.2043 -9.8416 9.0717
Li 6.0564 -10.1445 9.0717
O 9.0846 -0.1514 10.2248
O 16.3523 -0.7570 10.2248
O 6.0564 -1.3627 10.2248
O 13.3241 -1.9683 10.2248
O 3.0282 -2.5740 10.2248
O 10.2959 -3.1796 10.2248
O 17.5635 -3.7852 10.2248
O 7.2677 -4.3909 10.2248
O 14.5353 -4.9965 10.2248
O 4.2395 -5.6022 10.2248
O 11.5071 -6.2078 10.2248
O 1.2113 -6.8134 10.2248
O 8.4789 -7.4191 10.2248
O 15.7466 -8.0247 10.2248
O 5.4508 -8.6304 10.2248
O 12.7184 -9.2360 10.2248
O 2.4226 -9.8416 10.2248
Li 0.3028 -0.1514 11.3779
Li 12.7184 -0.4542 11.3779
Li 7.5705 -0.7570 11.3779
Li 2.4226 -1.0599 11.3779
Li 14.8382 -1.3627 11.3779
Li 9.6902 -1.6655 11.3779
Li 4.5423 -1.9683 11.3779
Li 16.9579 -2.2711 11.3779
Li 11.8100 -2.5740 11.3779
Li 6.6620 -2.8768 11.3779
Li 1.5141 -3.1796 11.3779
Li 13.9297 -3.4824 11.3779
Li 8.7818 -3.7852 11.3779
Li 3.6338 -4.0881 11.3779
Li 16.0494 -4.3909 11.3779
Li 10.9015 -4.6937 11.3779
Li 5.7536 -4.9965 11.3779
Li 0.6056 -5.2993 11.3779
Li 13.0212 -5.6022 11.3779
Li 7.8733 -5.9050 11.3779
Li 2.7254 -6.2078 11.3779
Li 15.1410 -6.5106 11.3779
Li 9.9930 -6.8134 11.3779
Li 4.8451 -7.1163 11.3779
Li 17.2607 -7.4191 11.3779
Li 12.1128 -7.7219 11.3779
Li 6.9648 -8.0247 11.3779
Li 1.8169 -8.3275 11.3779
Li 14.2325 -8.6304 11.3779
Li 9.0846 -8.9332 11.3779
Li 3.9367 -9.2360 11.3779
Li 16.3523 -9.5388 11.3779
Li 11.2043 -9.8416 11.3779
Li 6.0564 -10.1445 11.3779
O 3.9367 -0.4542 12.5310
O 11.2043 -1.0599 12.5310
O 0.9085 -1.6655 12.5310
O 8.1761 -2.2711 12.5310
O 15.4438 -2.8768 12.5310
O 5.1479 -3.4824 12.5310
O 12.4156 -4.0881 12.5310
O 2.1197 -4.6937 12.5310
O 9.3874 -5.2993 12.5310
O 16.6551 -5.9050 12.5310
O 6.3592 -6.5106 12.5310
O 13.6269 -7.1163 12.5310
O 3.3310 -7.7219 12.5310
O 10.5987 -8.3275 12.5310
O 17.8664 -8.9332 12.5310
O 7.5705 -9.5388 12.5310
O 14.8382 -10.1445 12.5310
Li 0.3028 -0.1514 13.6841
Li 12.7184 -0.4542 13.6841
Li 7.5705 -0.7570 13.6841
Li 2.4226 -1.0599 13.6841
Li 14.8382 -1.3627 13.6841
Li 9.6902 -1.6655 13.6841
Li 4.5423 -1.9683 13.6841
Li 16.9579 -2.2711 13.6841
Li 11.8100 -2.5740 13.6841
Li 6.6620 -2.8768 13.6841
Li 1.5141 -3.1796 13.6841
Li 13.9297 -3.4824 13.6841
Li 8.7818 -3.7852 13.6841
Li 3.6338 -4.0881 13.6841
Li 16.0494 -4.3909 13.6841
Li 10.9015 -4.6937 13.6841
Li 5.7536 -4.9965 13.6841
Li 0.6056 -5.2993 13.6841
Li 13.0212 -5.6022 13.6841
Li 7.8733 -5.9050 13.6841
Li 2.7254 -6.2078 13.6841
Li 15.1410 -6.5106 13.6841
Li 9.9930 -6.8134 13.6841
Li 4.8451 -7.1163 13.6841
Li 17.2607 -7.4191 13.6841
Li 12.1128 -7.7219 13.6841
Li 6.9648 -8.0247 13.6841
Li 1.8169 -8.3275 13.6841
Li 14.2325 -8.6304 13.6841
Li 9.0846 -8.9332 13.6841
Li 3.9367 -9.2360 13.6841
Li 16.3523 -9.5388 13.6841
Li 11.2043 -9.8416 13.6841
Li 6.0564 -10.1445 13.6841
O 9.0846 -0.1514 14.8372
O 16.3523 -0.7570 14.8372
O 6.0564 -1.3627 14.8372
O 13.3241 -1.9683 14.8372
O 3.0282 -2.5740 14.8372
O 10.2959 -3.1796 14.8372
O 17.5635 -3.7852 14.8372
O 7.2677 -4.3909 14.8372
O 14.5353 -4.9965 14.8372
O 4.2395 -5.6022 14.8372
O 11.5071 -6.2078 14.8372
O 1.2113 -6.8134 14.8372
O 8.4789 -7.4191 14.8372
O 15.7466 -8.0247 14.8372
O 5.4508 -8.6304 14.8372
O 12.7184 -9.2360 14.8372
O 2.4226 -9.8416 14.8372
Li 9.0846 -0.1514 16.4735
Li 6.5971 -0.5191 16.4735
Li 4.1097 -0.8868 16.4735
Li 1.6222 -1.2545 16.4735
Li 16.6983 -1.6222 16.4735
Li 14.2109 -1.9900 16.4735
Li 11.7234 -2.3577 16.4735
Li 9.2360 -2.7254 16.4735
Li 6.7486 -3.0931 16.4735
Li 4.2611 -3.4608 16.4735
Li 1.7737 -3.8285 16.4735
Li 16.8497 -4.1962 16.4735
Li 14.3623 -4.5639 16.4735
Li 11.8749 -4.9316 16.4735
Li 9.3874 -5.2993 16.4735
Li 6.9000 -5.6671 16.4735
Li 4.4125 -6.0348 16.4735
Li 1.9251 -6.4025 16.4735
Li 17.0012 -6.7702 16.4735
Li 14.5137 -7.1379 16.4735
Li 12.0263 -7.5056 16.4735
Li 9.5388 -7.8733 16.4735
Li 7.0514 -8.2410 16.4735
Li 4.5639 -8.6087 16.4735
Li 2.0765 -8.9764 16.4735
Li 17.1526 -9.3441 16.4735
Li 14.6651 -9.7119 16.4735
Li 12.1777 -10.0796 16.4735
O 15.3789 -0.5191 17.3248
O 10.4040 -1.2545 17.3248
O 5.4291 -1.9900 17.3248
O 0.4542 -2.7254 17.3248
O 13.0429 -3.4608 17.3248
O 8.0680 -4.1962 17.3248
O 3.0931 -4.9316 17.3248
O 15.6817 -5.6671 17.3248
O 10.7068 -6.4025 17.3248
O 5.7319 -7.1379 17.3248
O 0.7570 -7.8733 17.3248
O 13.3457 -8.6087 17.3248
O 8.3708 -9.3441 17.3248
O 3.3959 -10.0796 17.3248
H 15.3789 -0.5191 18.2949
H 10.4040 -1.2545 18.2949
H 5.4291 -1.9900 18.2949
H 0.4542 -2.7254 18.2949
H 13.0429 -3.4608 18.2949
H 8.0680 -4.1962 18.2949
H 3.0931 -4.9316 18.2949
H 15.6817 -5.6671 18.2949
H 10.7068 -6.4025 18.2949
H 5.7319 -7.1379 18.2949
H 0.7570 -7.8733 18.2949
H 13.3457 -8.6087 18.2949
H 8.3708 -9.3441 18.2949
H 3.3959 -10.0796 18.2949
H 0.3028 -0.1514 19.0626
H 12.8915 -0.8868 19.0626
H 7.9166 -1.6222 19.0626
H 2.9417 -2.3577 19.0626
H 15.5303 -3.0931 19.0626
H 10.5554 -3.8285 19.0626
H 5.5805 -4.5639 19.0626
H 0.6056 -5.2993 19.0626
H 13.1943 -6.0348 19.0626
H 8.2194 -6.7702 19.0626
H 3.2445 -7.5056 19.0626
H 15.8331 -8.2410 19.0626
H 10.8582 -8.9764 19.0626
H 5.8834 -9.7119 19.0626
O 0.3028 -0.1514 20.0327
O 12.8915 -0.8868 20.0327
O 7.9166 -1.6222 20.0327
O 2.9417 -2.3577 20.0327
O 15.5303 -3.0931 20.0327
O 10.5554 -3.8285 20.0327
O 5.5805 -4.5639 20.0327
O 0.6056 -5.2993 20.0327
O 13.1943 -6.0348 20.0327
O 8.2194 -6.7702 20.0327
O 3.2445 -7.5056 20.0327
O 15.8331 -8.2410 20.0327
O 10.8582 -8.9764 20.0327
O 5.8834 -9.7119 20.0327
Li 9.0846 -0.1514 20.8840
Li 6.5971 -0.5191 20.8840
Li 4.1097 -0.8868 20.8840
Li 1.6222 -1.2545 20.8840
Li 16.6983 -1.6222 20.8840
Li 14.2109 -1.9900 20.8840
Li 11.7234 -2.3577 20.8840
Li 9.2360 -2.7254 20.8840
Li 6.7486 -3.0931 20.8840
Li 4.2611 -3.4608 20.8840
Li 1.7737 -3.8285 20.8840
Li 16.8497 -4.1962 20.8840
Li 14.3623 -4.5639 20.8840
Li 11.8749 -4.9316 20.8840
Li 9.3874 -5.2993 20.8840
Li 6.9000 -5.6671 20.8840
Li 4.4125 -6.0348 20.8840
Li 1.9251 -6.4025 20.8840
Li 17.0012 -6.7702 20.8840
Li 14.5137 -7.1379 20.8840
Li 12.0263 -7.5056 20.8840
Li 9.5388 -7.8733 20.8840
Li 7.0514 -8.2410 20.8840
Li 4.5639 -8.6087 20.8840
Li 2.0765 -8.9764 20.8840
Li 17.1526 -9.3441 20.8840
Li 14.6651 -9.7119 20.8840
Li 12.1777 -10.0796 20.8840
O 15.3789 -0.5191 21.7353
O 10.4040 -1.2545 21.7353
O 5.4291 -1.9900 21.7353
O 0.4542 -2.7254 21.7353
O 13.0429 -3.4608 21.7353
O 8.0680 -4.1962 21.7353
O 3.0931 -4.9316 21.7353
O 15.6817 -5.6671 21.7353
O 10.7068 -6.4025 21.7353
O 5.7319 -7.1379 21.7353
O 0.7570 -7.8733 21.7353
O 13.3457 -8.6087 21.7353
O 8.3708 -9.3441 21.7353
O 3.3959 -10.0796 21.7353
H 15.3789 -0.5191 22.7054
H 10.4040 -1.2545 22.7054
H 5.4291 -1.9900 22.7054
H 0.4542 -2.7254 22.7054
H 13.0429 -3.4608 22.7054
H 8.0680 -4.1962 22.7054
H 3.0931 -4.9316 22.7054
H 15.6817 -5.6671 22.7054
H 10.7068 -6.4025 22.7054
H 5.7319 -7.1379 22.7054
H 0.7570 -7.8733 22.7054
H 13.3457 -8.6087 22.7054
H 8.3708 -9.3441 22.7054
H 3.3959 -10.0796 22.7054
H 0.3028 -0.1514 23.4730
H 12.8915 -0.8868 23.4730
H 7.9166 -1.6222 23.4730
H 2.9417 -2.3577 23.4730
H 15.5303 -3.0931 23.4730
H 10.5554 -3.8285 23.4730
H 5.5805 -4.5639 23.4730
H 0.6056 -5.2993 23.4730
H 13.1943 -6.0348 23.4730
H 8.2194 -6.7702 23.4730
H 3.2445 -7.5056 23.4730
H 15.8331 -8.2410 23.4730
H 10.8582 -8.9764 23.4730
H 5.8834 -9.7119 23.4730
O 0.3028 -0.1514 24.4431
O 12.8915 -0.8868 24.4431
O 7.9166 -1.6222 24.4431
O 2.9417 -2.3577 24.4431
O 15.5303 -3.0931 24.4431
O 10.5554 -3.8285 24.4431
O 5.5805 -4.5639 24.4431
O 0.6056 -5.2993 24.4431
O 13.1943 -6.0348 24.4431
O 8.2194 -6.7702 24.4431
O 3.2445 -7.5056 24.4431
O 15.8331 -8.2410 24.4431
O 10.8582 -8.9764 24.4431
O 5.8834 -9.7119 24.4431
Li 9.0846 -0.1514 25.2945
Li 6.5971 -0.5191 25.2945
Li 4.1097 -0.8868 25.2945
Li 1.6222 -1.2545 25.2945
Li 16.6983 -1.6222 25.2945
Li 14.2109 -1.9900 25.2945
Li 11.7234 -2.3577 25.2945
Li 9.2360 -2.7254 25.2945
Li 6.7486 -3.0931 25.2945
Li 4.2611 -3.4608 25.2945
Li 1.7737 -3.8285 25.2945
Li 16.8497 -4.1962 25.2945
Li 14.3623 -4.5639 25.2945
Li 11.8749 -4.9316 25.2945
Li 9.3874 -5.2993 25.2945
Li 6.9000 -5.6671 25.2945
Li 4.4125 -6.0348 25.2945
Li 1.9251 -6.4025 25.2945
Li 17.0012 -6.7702 25.2945
Li 14.5137 -7.1379 25.2945
Li 12.0263 -7.5056 25.2945
Li 9.5388 -7.8733 25.2945
Li 7.0514 -8.2410 25.2945
Li 4.5639 -8.6087 25.2945
Li 2.0765 -8.9764 25.2945
Li 17.1526 -9.3441 25.2945
Li 14.6651 -9.7119 25.2945
Li 12.1777 -10.0796 25.2945
O 15.3789 -0.5191 26.1458
O 10.4040 -1.2545 26.1458
O 5.4291 -1.9900 26.1458
O 0.4542 -2.7254 26.1458
O 13.0429 -3.4608 26.1458
O 8.0680 -4.1962 26.1458
O 3.0931 -4.9316 26.1458
O 15.6817 -5.6671 26.1458
O 10.7068 -6.4025 26.1458
O 5.7319 -7.1379 26.1458
O 0.7570 -7.8733 26.1458
O 13.3457 -8.6087 26.1458
O 8.3708 -9.3441 26.1458
O 3.3959 -10.0796 26.1458
H 15.3789 -0.5191 27.1159
H 10.4040 -1.2545 27.1159
H 5.4291 -1.9900 27.1159
H 0.4542 -2.7254 27.1159
H 13.0429 -3.4608 27.1159
H 8.0680 -4.1962 27.1159
H 3.0931 -4.9316 27.1159
H 15.6817 -5.6671 27.1159
H 10.7068 -6.4025 27.1159
H 5.7319 -7.1379 27.1159
H 0.7570 -7.8733 27.1159
H 13.3457 -8.6087 27.1159
H 8.3708 -9.3441 27.1159
H 3.3959 -10.0796 27.1159
H 0.3028 -0.1514 27.8835
H 12.8915 -0.8868 27.8835
H 7.9166 -1.6222 27.8835
H 2.9417 -2.3577 27.8835
H 15.5303 -3.0931 27.8835
H 10.5554 -3.8285 27.8835
H 5.5805 -4.5639 27.8835
H 0.6056 -5.2993 27.8835
H 13.1943 -6.0348 27.8835
H 8.2194 -6.7702 27.8835
H 3.2445 -7.5056 27.8835
H 15.8331 -8.2410 27.8835
H 10.8582 -8.9764 27.8835
H 5.8834 -9.7119 27.8835
O 0.3028 -0.1514 28.8536
O 12.8915 -0.8868 28.8536
O 7.9166 -1.6222 28.8536
O 2.9417 -2.3577 28.8536
O 15.5303 -3.0931 28.8536
O 10.5554 -3.8285 28.8536
O 5.5805 -4.5639 28.8536
O 0.6056 -5.2993 28.8536
O 13.1943 -6.0348 28.8536
O 8.2194 -6.7702 28.8536
O 3.2445 -7.5056 28.8536
O 15.8331 -8.2410 28.8536
O 10.8582 -8.9764 28.8536
O 5.8834 -9.7119 28.8536
Li 9.0846 -0.1514 29.7049
Li 6.5971 -0.5191 29.7049
Li 4.1097 -0.8868 29.7049
Li 1.6222 -1.2545 29.7049
Li 16.6983 -1.6222 29.7049
Li 14.2109 -1.9900 29.7049
Li 11.7234 -2.3577 29.7049
Li 9.2360 -2.7254 29.7049
Li 6.7486 -3.0931 29.7049
Li 4.2611 -3.4608 29.7049
Li 1.7737 -3.8285 29.7049
Li 16.8497 -4.1962 29.7049
Li 14.3623 -4.5639 29.7049
Li 11.8749 -4.9316 29.7049
Li 9.3874 -5.2993 29.7049
Li 6.9000 -5.6671 29.7049
Li 4.4125 -6.0348 29.7049
Li 1.9251 -6.4025 29.7049
Li 17.0012 -6.7702 29.7049
Li 14.5137 -7.1379 29.7049
Li 12.0263 -7.5056 29.7049
Li 9.5388 -7.8733 29.7049
Li 7.0514 -8.2410 29.7049
Li 4.5639 -8.6087 29.7049
Li 2.0765 -8.9764 29.7049
Li 17.1526 -9.3441 29.7049
Li 14.6651 -9.7119 29.7049
Li 12.1777 -10.0796 29.7049
O 15.3789 -0.5191 30.5562
O 10.4040 -1.2545 30.5562
O 5.4291 -1.9900 30.5562
O 0.4542 -2.7254 30.5562
O 13.0429 -3.4608 30.5562
O 8.0680 -4.1962 30.5562
O 3.0931 -4.9316 30.5562
O 15.6817 -5.6671 30.5562
O 10.7068 -6.4025 30.5562
O 5.7319 -7.1379 30.5562
O 0.7570 -7.8733 30.5562
O 13.3457 -8.6087 30.5562
O 8.3708 -9.3441 30.5562
O 3.3959 -10.0796 30.5562
