472
XYZ file generated by QuantumATK for match 20
O 13.5950 0.6385 1.0000
O 4.4529 2.6701 1.0000
O 10.5476 4.7017 1.0000
O 1.4055 6.7332 1.0000
O 7.5002 8.7648 1.0000
O 1.5140 1.2935 1.5463
O 7.6088 3.3251 1.5463
O 13.7035 5.3566 1.5463
O 4.5614 7.3882 1.5463
O 10.6561 9.4198 1.5463
C 10.1699 0.5395 1.6181
C 1.0277 2.5711 1.6181
C 7.1225 4.6027 1.6181
C 13.2172 6.6343 1.6181
C 4.0751 8.6659 1.6181
C 13.3262 1.1931 2.1665
C 4.1840 3.2247 2.1665
C 10.2788 5.2563 2.1665
C 1.1367 7.2879 2.1665
C 7.2314 9.3195 2.1665
O 6.7451 0.4392 2.2383
O 12.8399 2.4708 2.2383
O 3.6978 4.5023 2.2383
O 9.7925 6.5339 2.2383
O 0.6504 8.5655 2.2383
O 9.9010 1.0942 2.7846
O 0.7589 3.1257 2.7846
O 6.8537 5.1573 2.7846
O 12.9484 7.1889 2.7846
O 3.8063 9.2205 2.7846
Li 1.9616 10.0545 2.9472
Li 8.0563 1.9282 2.9472
Li 14.1510 3.9597 2.9472
Li 5.0089 5.9913 2.9472
Li 11.1037 8.0229 2.9472
O 13.5396 0.4836 3.2407
O 4.3974 2.5152 3.2407
O 10.4922 4.5468 3.2407
O 1.3501 6.5784 3.2407
O 7.4448 8.6099 3.2407
Li 5.0942 0.6289 3.3764
Li 11.1889 2.6605 3.3764
Li 2.0468 4.6921 3.3764
Li 8.1416 6.7236 3.3764
Li 14.2363 8.7552 3.3764
Li 10.0972 0.3509 4.6238
Li 0.9551 2.3825 4.6238
Li 7.0498 4.4141 4.6238
Li 13.1445 6.4457 4.6238
Li 4.0024 8.4773 4.6238
O 1.6518 0.4962 4.7595
O 7.7466 2.5278 4.7595
O 13.8413 4.5594 4.7595
O 4.6992 6.5910 4.7595
O 10.7939 8.6225 4.7595
Li 13.2298 1.0832 5.0530
Li 4.0877 3.1148 5.0530
Li 10.1824 5.1464 5.0530
Li 1.0403 7.1780 5.0530
Li 7.1351 9.2096 5.0530
O 5.2903 10.0436 5.2156
O 11.3851 1.9173 5.2156
O 2.2430 3.9488 5.2156
O 8.3377 5.9804 5.2156
O 14.4324 8.0120 5.2156
O 8.4462 0.5406 5.7619
O 14.5410 2.5722 5.7619
O 5.3989 4.6038 5.7619
O 11.4936 6.6354 5.7619
O 2.3515 8.6670 5.7619
C 7.9600 1.8183 5.8337
C 14.0547 3.8499 5.8337
C 4.9126 5.8814 5.8337
C 11.0073 7.9130 5.8337
C 1.8652 9.9446 5.8337
C 5.0215 0.4403 6.3821
C 11.1163 2.4719 6.3821
C 1.9741 4.5035 6.3821
C 8.0689 6.5351 6.3821
C 14.1636 8.5666 6.3821
O 4.5352 1.7179 6.4539
O 10.6300 3.7495 6.4539
O 1.4879 5.7811 6.4539
O 7.5826 7.8127 6.4539
O 13.6774 9.8443 6.4539
O 1.5964 0.3413 7.0002
O 7.6911 2.3729 7.0002
O 13.7859 4.4045 7.0002
O 4.6438 6.4361 7.0002
O 10.7385 8.4677 7.0002
Li 14.9885 1.1753 7.1628
Li 5.8464 3.2069 7.1628
Li 11.9412 5.2385 7.1628
Li 2.7990 7.2701 7.1628
Li 8.8938 9.3017 7.1628
O 11.3297 1.7624 7.4563
O 2.1875 3.7940 7.4563
O 8.2823 5.8255 7.4563
O 14.3770 7.8571 7.4563
O 5.2349 9.8887 7.4563
Li 12.0264 10.0340 7.5920
Li 2.8843 1.9076 7.5920
Li 8.9790 3.9392 7.5920
Li 15.0738 5.9708 7.5920
Li 5.9317 8.0024 7.5920
Li 7.8873 1.6297 8.8394
Li 13.9820 3.6613 8.8394
Li 4.8399 5.6929 8.8394
Li 10.9347 7.7244 8.8394
Li 1.7925 9.7560 8.8394
O 14.6788 1.7750 8.9751
O 5.5367 3.8065 8.9751
O 11.6314 5.8381 8.9751
O 2.4893 7.8697 8.9751
O 8.5840 9.9013 8.9751
Li 4.9252 0.3304 9.2686
Li 11.0199 2.3620 9.2686
Li 1.8778 4.3936 9.2686
Li 7.9725 6.4252 9.2686
Li 14.0673 8.4567 9.2686
O 3.0804 1.1644 9.4312
O 9.1752 3.1960 9.4312
O 0.0331 5.2276 9.4312
O 6.1278 7.2592 9.4312
O 12.2226 9.2908 9.4312
O 6.2363 1.8194 9.9775
O 12.3311 3.8510 9.9775
O 3.1890 5.8826 9.9775
O 9.2837 7.9141 9.9775
O 0.1416 9.9457 9.9775
C 14.8922 1.0655 10.0493
C 5.7501 3.0970 10.0493
C 11.8448 5.1286 10.0493
C 2.7027 7.1602 10.0493
C 8.7974 9.1918 10.0493
C 2.8116 1.7191 10.5977
C 8.9064 3.7506 10.5977
C 15.0011 5.7822 10.5977
C 5.8590 7.8138 10.5977
C 11.9537 9.8454 10.5977
O 11.4675 0.9651 10.6695
O 2.3254 2.9967 10.6695
O 8.4201 5.0283 10.6695
O 14.5148 7.0599 10.6695
O 5.3727 9.0914 10.6695
O 14.6234 1.6201 11.2158
O 5.4812 3.6517 11.2158
O 11.5760 5.6832 11.2158
O 2.4339 7.7148 11.2158
O 8.5286 9.7464 11.2158
Li 6.6839 0.4225 11.3784
Li 12.7786 2.4541 11.3784
Li 3.6365 4.4857 11.3784
Li 9.7313 6.5173 11.3784
Li 0.5891 8.5488 11.3784
O 3.0250 1.0095 11.6719
O 9.1198 3.0411 11.6719
O 15.2145 5.0727 11.6719
O 6.0724 7.1043 11.6719
O 12.1671 9.1359 11.6719
Li 9.8165 1.1548 11.8076
Li 0.6744 3.1864 11.8076
Li 6.7692 5.2180 11.8076
Li 12.8639 7.2496 11.8076
Li 3.7218 9.2811 11.8076
Li 14.8195 0.8769 13.0550
Li 5.6774 2.9085 13.0550
Li 11.7721 4.9400 13.0550
Li 2.6300 6.9716 13.0550
Li 8.7248 9.0032 13.0550
O 6.3741 1.0221 13.1907
O 12.4689 3.0537 13.1907
O 3.3268 5.0853 13.1907
O 9.4215 7.1169 13.1907
O 0.2794 9.1485 13.1907
Li 2.7153 1.6092 13.4842
Li 8.8100 3.6408 13.4842
Li 14.9048 5.6723 13.4842
Li 5.7626 7.7039 13.4842
Li 11.8574 9.7355 13.4842
O 10.0127 0.4116 13.6468
O 0.8705 2.4432 13.6468
O 6.9653 4.4748 13.6468
O 13.0600 6.5064 13.6468
O 3.9179 8.5379 13.6468
O 13.1686 1.0666 14.1931
O 4.0264 3.0982 14.1931
O 10.1212 5.1297 14.1931
O 0.9791 7.1613 14.1931
O 7.0738 9.1929 14.1931
C 6.5875 0.3126 14.2649
C 12.6823 2.3442 14.2649
C 3.5402 4.3758 14.2649
C 9.6349 6.4074 14.2649
C 0.4928 8.4390 14.2649
C 9.7438 0.9662 14.8133
C 0.6017 2.9978 14.8133
C 6.6965 5.0294 14.8133
C 12.7912 7.0610 14.8133
C 3.6491 9.0926 14.8133
O 3.1628 0.2123 14.8851
O 9.2576 2.2439 14.8851
O 0.1155 4.2754 14.8851
O 6.2102 6.3070 14.8851
O 12.3049 8.3386 14.8851
O 6.3187 0.8673 15.4314
O 12.4135 2.8988 15.4314
O 3.2713 4.9304 15.4314
O 9.3661 6.9620 15.4314
O 0.2240 8.9936 15.4314
Li 4.4740 1.7013 15.5940
Li 10.5687 3.7329 15.5940
Li 1.4266 5.7644 15.5940
Li 7.5214 7.7960 15.5940
Li 13.6161 9.8276 15.5940
O 9.9572 0.2567 15.8875
O 0.8151 2.2883 15.8875
O 6.9099 4.3199 15.8875
O 13.0046 6.3515 15.8875
O 3.8625 8.3831 15.8875
Li 1.1281 1.4819 17.6396
Li 3.6676 1.4819 17.6396
Li 6.2071 1.4819 17.6396
Li 8.7466 1.4819 17.6396
Li 11.2861 1.4819 17.6396
Li 13.8255 1.4819 17.6396
Li 1.1281 4.0214 17.6396
Li 3.6676 4.0214 17.6396
Li 6.2071 4.0214 17.6396
Li 8.7466 4.0214 17.6396
Li 11.2861 4.0214 17.6396
Li 13.8255 4.0214 17.6396
Li 1.1281 6.5609 17.6396
Li 3.6676 6.5609 17.6396
Li 6.2071 6.5609 17.6396
Li 8.7466 6.5609 17.6396
Li 11.2861 6.5609 17.6396
Li 13.8255 6.5609 17.6396
Li 1.1281 9.1004 17.6396
Li 3.6676 9.1004 17.6396
Li 6.2071 9.1004 17.6396
Li 8.7466 9.1004 17.6396
Li 11.2861 9.1004 17.6396
Li 13.8255 9.1004 17.6396
O 2.3979 0.2122 18.4909
O 7.4768 0.2122 18.4909
O 12.5558 0.2122 18.4909
O 4.9374 2.7517 18.4909
O 10.0163 2.7517 18.4909
O 15.0953 2.7517 18.4909
O 2.3979 5.2911 18.4909
O 7.4768 5.2911 18.4909
O 12.5558 5.2911 18.4909
O 4.9374 7.8306 18.4909
O 10.0163 7.8306 18.4909
O 15.0953 7.8306 18.4909
H 2.3979 0.2122 19.4610
H 7.4768 0.2122 19.4610
H 12.5558 0.2122 19.4610
H 4.9374 2.7517 19.4610
H 10.0163 2.7517 19.4610
H 15.0953 2.7517 19.4610
H 2.3979 5.2911 19.4610
H 7.4768 5.2911 19.4610
H 12.5558 5.2911 19.4610
H 4.9374 7.8306 19.4610
H 10.0163 7.8306 19.4610
H 15.0953 7.8306 19.4610
H 4.9374 0.2122 20.2286
H 10.0163 0.2122 20.2286
H 15.0953 0.2122 20.2286
H 2.3979 2.7517 20.2286
H 7.4768 2.7517 20.2286
H 12.5558 2.7517 20.2286
H 4.9374 5.2911 20.2286
H 10.0163 5.2911 20.2286
H 15.0953 5.2911 20.2286
H 2.3979 7.8306 20.2286
H 7.4768 7.8306 20.2286
H 12.5558 7.8306 20.2286
O 4.9374 0.2122 21.1987
O 10.0163 0.2122 21.1987
O 15.0953 0.2122 21.1987
O 2.3979 2.7517 21.1987
O 7.4768 2.7517 21.1987
O 12.5558 2.7517 21.1987
O 4.9374 5.2911 21.1987
O 10.0163 5.2911 21.1987
O 15.0953 5.2911 21.1987
O 2.3979 7.8306 21.1987
O 7.4768 7.8306 21.1987
O 12.5558 7.8306 21.1987
Li 1.1281 1.4819 22.0500
Li 3.6676 1.4819 22.0500
Li 6.2071 1.4819 22.0500
Li 8.7466 1.4819 22.0500
Li 11.2861 1.4819 22.0500
Li 13.8255 1.4819 22.0500
Li 1.1281 4.0214 22.0500
Li 3.6676 4.0214 22.0500
Li 6.2071 4.0214 22.0500
Li 8.7466 4.0214 22.0500
Li 11.2861 4.0214 22.0500
Li 13.8255 4.0214 22.0500
Li 1.1281 6.5609 22.0500
Li 3.6676 6.5609 22.0500
Li 6.2071 6.5609 22.0500
Li 8.7466 6.5609 22.0500
Li 11.2861 6.5609 22.0500
Li 13.8255 6.5609 22.0500
Li 1.1281 9.1004 22.0500
Li 3.6676 9.1004 22.0500
Li 6.2071 9.1004 22.0500
Li 8.7466 9.1004 22.0500
Li 11.2861 9.1004 22.0500
Li 13.8255 9.1004 22.0500
O 2.3979 0.2122 22.9013
O 7.4768 0.2122 22.9013
O 12.5558 0.2122 22.9013
O 4.9374 2.7517 22.9013
O 10.0163 2.7517 22.9013
O 15.0953 2.7517 22.9013
O 2.3979 5.2911 22.9013
O 7.4768 5.2911 22.9013
O 12.5558 5.2911 22.9013
O 4.9374 7.8306 22.9013
O 10.0163 7.8306 22.9013
O 15.0953 7.8306 22.9013
H 2.3979 0.2122 23.8714
H 7.4768 0.2122 23.8714
H 12.5558 0.2122 23.8714
H 4.9374 2.7517 23.8714
H 10.0163 2.7517 23.8714
H 15.0953 2.7517 23.8714
H 2.3979 5.2911 23.8714
H 7.4768 5.2911 23.8714
H 12.5558 5.2911 23.8714
H 4.9374 7.8306 23.8714
H 10.0163 7.8306 23.8714
H 15.0953 7.8306 23.8714
H 4.9374 0.2122 24.6391
H 10.0163 0.2122 24.6391
H 15.0953 0.2122 24.6391
H 2.3979 2.7517 24.6391
H 7.4768 2.7517 24.6391
H 12.5558 2.7517 24.6391
H 4.9374 5.2911 24.6391
H 10.0163 5.2911 24.6391
H 15.0953 5.2911 24.6391
H 2.3979 7.8306 24.6391
H 7.4768 7.8306 24.6391
H 12.5558 7.8306 24.6391
O 4.9374 0.2122 25.6092
O 10.0163 0.2122 25.6092
O 15.0953 0.2122 25.6092
O 2.3979 2.7517 25.6092
O 7.4768 2.7517 25.6092
O 12.5558 2.7517 25.6092
O 4.9374 5.2911 25.6092
O 10.0163 5.2911 25.6092
O 15.0953 5.2911 25.6092
O 2.3979 7.8306 25.6092
O 7.4768 7.8306 25.6092
O 12.5558 7.8306 25.6092
Li 1.1281 1.4819 26.4605
Li 3.6676 1.4819 26.4605
Li 6.2071 1.4819 26.4605
Li 8.7466 1.4819 26.4605
Li 11.2861 1.4819 26.4605
Li 13.8255 1.4819 26.4605
Li 1.1281 4.0214 26.4605
Li 3.6676 4.0214 26.4605
Li 6.2071 4.0214 26.4605
Li 8.7466 4.0214 26.4605
Li 11.2861 4.0214 26.4605
Li 13.8255 4.0214 26.4605
Li 1.1281 6.5609 26.4605
Li 3.6676 6.5609 26.4605
Li 6.2071 6.5609 26.4605
Li 8.7466 6.5609 26.4605
Li 11.2861 6.5609 26.4605
Li 13.8255 6.5609 26.4605
Li 1.1281 9.1004 26.4605
Li 3.6676 9.1004 26.4605
Li 6.2071 9.1004 26.4605
Li 8.7466 9.1004 26.4605
Li 11.2861 9.1004 26.4605
Li 13.8255 9.1004 26.4605
O 2.3979 0.2122 27.3118
O 7.4768 0.2122 27.3118
O 12.5558 0.2122 27.3118
O 4.9374 2.7517 27.3118
O 10.0163 2.7517 27.3118
O 15.0953 2.7517 27.3118
O 2.3979 5.2911 27.3118
O 7.4768 5.2911 27.3118
O 12.5558 5.2911 27.3118
O 4.9374 7.8306 27.3118
O 10.0163 7.8306 27.3118
O 15.0953 7.8306 27.3118
H 2.3979 0.2122 28.2819
H 7.4768 0.2122 28.2819
H 12.5558 0.2122 28.2819
H 4.9374 2.7517 28.2819
H 10.0163 2.7517 28.2819
H 15.0953 2.7517 28.2819
H 2.3979 5.2911 28.2819
H 7.4768 5.2911 28.2819
H 12.5558 5.2911 28.2819
H 4.9374 7.8306 28.2819
H 10.0163 7.8306 28.2819
H 15.0953 7.8306 28.2819
H 4.9374 0.2122 29.0495
H 10.0163 0.2122 29.0495
H 15.0953 0.2122 29.0495
H 2.3979 2.7517 29.0495
H 7.4768 2.7517 29.0495
H 12.5558 2.7517 29.0495
H 4.9374 5.2911 29.0495
H 10.0163 5.2911 29.0495
H 15.0953 5.2911 29.0495
H 2.3979 7.8306 29.0495
H 7.4768 7.8306 29.0495
H 12.5558 7.8306 29.0495
O 4.9374 0.2122 30.0196
O 10.0163 0.2122 30.0196
O 15.0953 0.2122 30.0196
O 2.3979 2.7517 30.0196
O 7.4768 2.7517 30.0196
O 12.5558 2.7517 30.0196
O 4.9374 5.2911 30.0196
O 10.0163 5.2911 30.0196
O 15.0953 5.2911 30.0196
O 2.3979 7.8306 30.0196
O 7.4768 7.8306 30.0196
O 12.5558 7.8306 30.0196
Li 1.1281 1.4819 30.8710
Li 3.6676 1.4819 30.8710
Li 6.2071 1.4819 30.8710
Li 8.7466 1.4819 30.8710
Li 11.2861 1.4819 30.8710
Li 13.8255 1.4819 30.8710
Li 1.1281 4.0214 30.8710
Li 3.6676 4.0214 30.8710
Li 6.2071 4.0214 30.8710
Li 8.7466 4.0214 30.8710
Li 11.2861 4.0214 30.8710
Li 13.8255 4.0214 30.8710
Li 1.1281 6.5609 30.8710
Li 3.6676 6.5609 30.8710
Li 6.2071 6.5609 30.8710
Li 8.7466 6.5609 30.8710
Li 11.2861 6.5609 30.8710
Li 13.8255 6.5609 30.8710
Li 1.1281 9.1004 30.8710
Li 3.6676 9.1004 30.8710
Li 6.2071 9.1004 30.8710
Li 8.7466 9.1004 30.8710
Li 11.2861 9.1004 30.8710
Li 13.8255 9.1004 30.8710
O 2.3979 0.2122 31.7223
O 7.4768 0.2122 31.7223
O 12.5558 0.2122 31.7223
O 4.9374 2.7517 31.7223
O 10.0163 2.7517 31.7223
O 15.0953 2.7517 31.7223
O 2.3979 5.2911 31.7223
O 7.4768 5.2911 31.7223
O 12.5558 5.2911 31.7223
O 4.9374 7.8306 31.7223
O 10.0163 7.8306 31.7223
O 15.0953 7.8306 31.7223
