1181
XYZ file generated by QuantumATK for match 10
O 13.0234 0.8167 1.0000
O 4.1120 2.7598 1.0000
O 10.0082 4.7028 1.0000
O 1.0969 6.6459 1.0000
O 6.9931 8.5890 1.0000
O 12.8894 10.5321 1.0000
O 3.9780 12.4751 1.0000
O 9.8742 14.4182 1.0000
O 15.7705 16.3613 1.0000
O 6.8591 18.3044 1.0000
O 12.7554 20.2474 1.0000
O 3.8440 22.1905 1.0000
O 9.7402 24.1336 1.0000
O 1.2741 1.4431 1.5463
O 7.1704 3.3862 1.5463
O 13.0666 5.3293 1.5463
O 4.1552 7.2723 1.5463
O 10.0515 9.2154 1.5463
O 15.9477 11.1585 1.5463
O 7.0364 13.1016 1.5463
O 12.9326 15.0446 1.5463
O 4.0212 16.9877 1.5463
O 9.9175 18.9308 1.5463
O 15.8137 20.8739 1.5463
O 6.9024 22.8169 1.5463
O 12.7986 24.7600 1.5463
C 9.6961 0.7220 1.6181
C 0.7847 2.6651 1.6181
C 6.6809 4.6082 1.6181
C 12.5772 6.5512 1.6181
C 3.6658 8.4943 1.6181
C 9.5620 10.4374 1.6181
C 15.4583 12.3805 1.6181
C 6.5469 14.3235 1.6181
C 12.4432 16.2666 1.6181
C 3.5318 18.2097 1.6181
C 9.4280 20.1528 1.6181
C 15.3243 22.0958 1.6181
C 6.4129 24.0389 1.6181
C 12.7548 1.3472 2.1665
C 3.8435 3.2902 2.1665
C 9.7397 5.2333 2.1665
C 0.8283 7.1764 2.1665
C 6.7246 9.1194 2.1665
C 12.6208 11.0625 2.1665
C 3.7095 13.0056 2.1665
C 9.6057 14.9487 2.1665
C 15.5019 16.8917 2.1665
C 6.5906 18.8348 2.1665
C 12.4868 20.7779 2.1665
C 3.5755 22.7210 2.1665
C 9.4717 24.6640 2.1665
O 6.3692 0.6260 2.2383
O 12.2654 2.5691 2.2383
O 3.3540 4.5122 2.2383
O 9.2503 6.4553 2.2383
O 15.1465 8.3983 2.2383
O 6.2351 10.3414 2.2383
O 12.1314 12.2845 2.2383
O 3.2200 14.2276 2.2383
O 9.1163 16.1706 2.2383
O 15.0125 18.1137 2.2383
O 6.1011 20.0568 2.2383
O 11.9974 21.9999 2.2383
O 3.0860 23.9429 2.2383
O 9.4275 1.2525 2.7846
O 0.5161 3.1956 2.7846
O 6.4124 5.1386 2.7846
O 12.3086 7.0817 2.7846
O 3.3973 9.0248 2.7846
O 9.2935 10.9679 2.7846
O 15.1897 12.9109 2.7846
O 6.2784 14.8540 2.7846
O 12.1746 16.7971 2.7846
O 3.2633 18.7402 2.7846
O 9.1595 20.6832 2.7846
O 15.0557 22.6263 2.7846
O 6.1444 24.5694 2.7846
Li 1.7275 0.1071 2.9472
Li 7.6237 2.0502 2.9472
Li 13.5200 3.9932 2.9472
Li 4.6086 5.9363 2.9472
Li 10.5048 7.8794 2.9472
Li 1.5935 9.8225 2.9472
Li 7.4897 11.7655 2.9472
Li 13.3860 13.7086 2.9472
Li 4.4746 15.6517 2.9472
Li 10.3708 17.5948 2.9472
Li 16.2671 19.5378 2.9472
Li 7.3557 21.4809 2.9472
Li 13.2519 23.4240 2.9472
O 12.9716 0.6685 3.2407
O 4.0602 2.6116 3.2407
O 9.9564 4.5547 3.2407
O 1.0451 6.4978 3.2407
O 6.9413 8.4408 3.2407
O 12.8376 10.3839 3.2407
O 3.9262 12.3270 3.2407
O 9.8224 14.2701 3.2407
O 15.7187 16.2131 3.2407
O 6.8073 18.1562 3.2407
O 12.7035 20.0993 3.2407
O 3.7922 22.0424 3.2407
O 9.6884 23.9854 3.2407
Li 4.7622 0.8075 3.3764
Li 10.6584 2.7506 3.3764
Li 1.7471 4.6936 3.3764
Li 7.6433 6.6367 3.3764
Li 13.5396 8.5798 3.3764
Li 4.6282 10.5229 3.3764
Li 10.5244 12.4659 3.3764
Li 1.6131 14.4090 3.3764
Li 7.5093 16.3521 3.3764
Li 13.4056 18.2952 3.3764
Li 4.4942 20.2382 3.3764
Li 10.3904 22.1813 3.3764
Li 16.2867 24.1244 3.3764
Li 9.6279 0.5417 4.6238
Li 0.7166 2.4847 4.6238
Li 6.6128 4.4278 4.6238
Li 12.5090 6.3709 4.6238
Li 3.5977 8.3139 4.6238
Li 9.4939 10.2570 4.6238
Li 15.3901 12.2001 4.6238
Li 6.4788 14.1432 4.6238
Li 12.3750 16.0862 4.6238
Li 3.4637 18.0293 4.6238
Li 9.3599 19.9724 4.6238
Li 15.2561 21.9155 4.6238
Li 6.3448 23.8585 4.6238
O 1.4186 0.6806 4.7595
O 7.3148 2.6237 4.7595
O 13.2110 4.5667 4.7595
O 4.2997 6.5098 4.7595
O 10.1959 8.4529 4.7595
O 1.2846 10.3960 4.7595
O 7.1808 12.3390 4.7595
O 13.0770 14.2821 4.7595
O 4.1657 16.2252 4.7595
O 10.0619 18.1683 4.7595
O 15.9581 20.1113 4.7595
O 7.0468 22.0544 4.7595
O 12.9430 23.9975 4.7595
Li 12.6626 1.2420 5.0530
Li 3.7513 3.1851 5.0530
Li 9.6475 5.1282 5.0530
Li 0.7362 7.0713 5.0530
Li 6.6324 9.0143 5.0530
Li 12.5286 10.9574 5.0530
Li 3.6173 12.9005 5.0530
Li 9.5135 14.8436 5.0530
Li 15.4097 16.7866 5.0530
Li 6.4984 18.7297 5.0530
Li 12.3946 20.6728 5.0530
Li 3.4833 22.6159 5.0530
Li 9.3795 24.5589 5.0530
O 4.9626 0.0967 5.2156
O 10.8589 2.0397 5.2156
O 1.9475 3.9828 5.2156
O 7.8437 5.9259 5.2156
O 13.7400 7.8690 5.2156
O 4.8286 9.8120 5.2156
O 10.7249 11.7551 5.2156
O 1.8135 13.6982 5.2156
O 7.7097 15.6412 5.2156
O 13.6060 17.5843 5.2156
O 4.6946 19.5274 5.2156
O 10.5908 21.4705 5.2156
O 16.4871 23.4135 5.2156
O 8.0210 0.7231 5.7619
O 13.9172 2.6662 5.7619
O 5.0059 4.6092 5.7619
O 10.9021 6.5523 5.7619
O 1.9907 8.4954 5.7619
O 7.8870 10.4385 5.7619
O 13.7832 12.3815 5.7619
O 4.8719 14.3246 5.7619
O 10.7681 16.2677 5.7619
O 16.6643 18.2108 5.7619
O 7.7530 20.1538 5.7619
O 13.6492 22.0969 5.7619
O 4.7379 24.0400 5.7619
C 7.5315 1.9451 5.8337
C 13.4278 3.8881 5.8337
C 4.5164 5.8312 5.8337
C 10.4127 7.7743 5.8337
C 1.5013 9.7174 5.8337
C 7.3975 11.6604 5.8337
C 13.2938 13.6035 5.8337
C 4.3824 15.5466 5.8337
C 10.2787 17.4897 5.8337
C 16.1749 19.4327 5.8337
C 7.2635 21.3758 5.8337
C 13.1598 23.3189 5.8337
C 1.6353 0.0020 5.8337
C 4.6941 0.6271 6.3821
C 10.5903 2.5702 6.3821
C 1.6790 4.5133 6.3821
C 7.5752 6.4563 6.3821
C 13.4714 8.3994 6.3821
C 4.5601 10.3425 6.3821
C 10.4563 12.2856 6.3821
C 1.5450 14.2286 6.3821
C 7.4412 16.1717 6.3821
C 13.3374 18.1148 6.3821
C 4.4261 20.0579 6.3821
C 10.3223 22.0009 6.3821
C 16.2185 23.9440 6.3821
O 4.2047 1.8491 6.4539
O 10.1009 3.7922 6.4539
O 1.1895 5.7352 6.4539
O 7.0858 7.6783 6.4539
O 12.9820 9.6214 6.4539
O 4.0706 11.5645 6.4539
O 9.9669 13.5075 6.4539
O 15.8631 15.4506 6.4539
O 6.9518 17.3937 6.4539
O 12.8480 19.3368 6.4539
O 3.9366 21.2798 6.4539
O 9.8329 23.2229 6.4539
O 15.7291 25.1660 6.4539
O 1.3668 0.5325 7.0002
O 7.2630 2.4755 7.0002
O 13.1592 4.4186 7.0002
O 4.2479 6.3617 7.0002
O 10.1441 8.3048 7.0002
O 1.2328 10.2478 7.0002
O 7.1290 12.1909 7.0002
O 13.0252 14.1340 7.0002
O 4.1139 16.0771 7.0002
O 10.0101 18.0201 7.0002
O 15.9063 19.9632 7.0002
O 6.9950 21.9063 7.0002
O 12.8912 23.8494 7.0002
Li 14.3706 1.3301 7.1628
Li 5.4592 3.2732 7.1628
Li 11.3555 5.2163 7.1628
Li 2.4441 7.1594 7.1628
Li 8.3403 9.1024 7.1628
Li 14.2366 11.0455 7.1628
Li 5.3252 12.9886 7.1628
Li 11.2214 14.9317 7.1628
Li 2.3101 16.8747 7.1628
Li 8.2063 18.8178 7.1628
Li 14.1026 20.7609 7.1628
Li 5.1912 22.7040 7.1628
Li 11.0874 24.6470 7.1628
O 10.8071 1.8916 7.4563
O 1.8957 3.8347 7.4563
O 7.7919 5.7777 7.4563
O 13.6882 7.7208 7.4563
O 4.7768 9.6639 7.4563
O 10.6730 11.6070 7.4563
O 1.7617 13.5500 7.4563
O 7.6579 15.4931 7.4563
O 13.5542 17.4362 7.4563
O 4.6428 19.3793 7.4563
O 10.5390 21.3223 7.4563
O 16.4353 23.2654 7.4563
O 7.5239 25.2085 7.4563
Li 11.5091 0.0875 7.5920
Li 2.5977 2.0305 7.5920
Li 8.4939 3.9736 7.5920
Li 14.3902 5.9167 7.5920
Li 5.4788 7.8598 7.5920
Li 11.3751 9.8028 7.5920
Li 2.4637 11.7459 7.5920
Li 8.3599 13.6890 7.5920
Li 14.2562 15.6321 7.5920
Li 5.3448 17.5751 7.5920
Li 11.2411 19.5182 7.5920
Li 2.3297 21.4613 7.5920
Li 8.2259 23.4044 7.5920
Li 7.4634 1.7647 8.8394
Li 13.3596 3.7078 8.8394
Li 4.4483 5.6508 8.8394
Li 10.3445 7.5939 8.8394
Li 1.4332 9.5370 8.8394
Li 7.3294 11.4801 8.8394
Li 13.2256 13.4231 8.8394
Li 4.3143 15.3662 8.8394
Li 10.2105 17.3093 8.8394
Li 16.1067 19.2524 8.8394
Li 7.1954 21.1954 8.8394
Li 13.0916 23.1385 8.8394
Li 4.1803 25.0816 8.8394
O 14.0616 1.9036 8.9751
O 5.1503 3.8467 8.9751
O 11.0465 5.7898 8.9751
O 2.1352 7.7329 8.9751
O 8.0314 9.6759 8.9751
O 13.9276 11.6190 8.9751
O 5.0163 13.5621 8.9751
O 10.9125 15.5052 8.9751
O 2.0012 17.4482 8.9751
O 7.8974 19.3913 8.9751
O 13.7936 21.3344 8.9751
O 4.8823 23.2775 8.9751
O 10.7785 25.2205 8.9751
Li 4.6019 0.5220 9.2686
Li 10.4981 2.4651 9.2686
Li 1.5868 4.4082 9.2686
Li 7.4830 6.3512 9.2686
Li 13.3792 8.2943 9.2686
Li 4.4679 10.2374 9.2686
Li 10.3641 12.1805 9.2686
Li 16.2603 14.1235 9.2686
Li 7.3490 16.0666 9.2686
Li 13.2452 18.0097 9.2686
Li 4.3339 19.9528 9.2686
Li 10.2301 21.8958 9.2686
Li 16.1263 23.8389 9.2686
O 2.7981 1.3197 9.4312
O 8.6944 3.2628 9.4312
O 14.5906 5.2058 9.4312
O 5.6792 7.1489 9.4312
O 11.5755 9.0920 9.4312
O 2.6641 11.0351 9.4312
O 8.5604 12.9781 9.4312
O 14.4566 14.9212 9.4312
O 5.5452 16.8643 9.4312
O 11.4415 18.8074 9.4312
O 2.5301 20.7504 9.4312
O 8.4263 22.6935 9.4312
O 14.3226 24.6366 9.4312
O 5.8565 1.9461 9.9775
O 11.7527 3.8892 9.9775
O 2.8414 5.8323 9.9775
O 8.7376 7.7754 9.9775
O 14.6338 9.7184 9.9775
O 5.7225 11.6615 9.9775
O 11.6187 13.6046 9.9775
O 2.7074 15.5477 9.9775
O 8.6036 17.4907 9.9775
O 14.4998 19.4338 9.9775
O 5.5885 21.3769 9.9775
O 11.4847 23.3200 9.9775
O 14.7678 0.0031 9.9775
C 14.2784 1.2250 10.0493
C 5.3670 3.1681 10.0493
C 11.2633 5.1112 10.0493
C 2.3519 7.0543 10.0493
C 8.2482 8.9973 10.0493
C 14.1444 10.9404 10.0493
C 5.2330 12.8835 10.0493
C 11.1293 14.8266 10.0493
C 2.2179 16.7696 10.0493
C 8.1142 18.7127 10.0493
C 14.0104 20.6558 10.0493
C 5.0990 22.5989 10.0493
C 10.9953 24.5419 10.0493
C 2.5296 1.8502 10.5977
C 8.4258 3.7932 10.5977
C 14.3220 5.7363 10.5977
C 5.4107 7.6794 10.5977
C 11.3069 9.6225 10.5977
C 2.3956 11.5655 10.5977
C 8.2918 13.5086 10.5977
C 14.1880 15.4517 10.5977
C 5.2767 17.3948 10.5977
C 11.1729 19.3378 10.5977
C 2.2616 21.2809 10.5977
C 8.1578 23.2240 10.5977
C 14.0540 25.1671 10.5977
O 10.9515 1.1291 10.6695
O 2.0401 3.0721 10.6695
O 7.9364 5.0152 10.6695
O 13.8326 6.9583 10.6695
O 4.9213 8.9014 10.6695
O 10.8175 10.8444 10.6695
O 1.9061 12.7875 10.6695
O 7.8024 14.7306 10.6695
O 13.6986 16.6737 10.6695
O 4.7873 18.6167 10.6695
O 10.6835 20.5598 10.6695
O 16.5797 22.5029 10.6695
O 7.6684 24.4460 10.6695
O 14.0098 1.7555 11.2158
O 5.0985 3.6986 11.2158
O 10.9947 5.6417 11.2158
O 2.0834 7.5847 11.2158
O 7.9796 9.5278 11.2158
O 13.8758 11.4709 11.2158
O 4.9645 13.4139 11.2158
O 10.8607 15.3570 11.2158
O 1.9494 17.3001 11.2158
O 7.8456 19.2432 11.2158
O 13.7418 21.1862 11.2158
O 4.8305 23.1293 11.2158
O 10.7267 25.0724 11.2158
Li 6.3098 0.6101 11.3784
Li 12.2061 2.5532 11.3784
Li 3.2947 4.4963 11.3784
Li 9.1910 6.4393 11.3784
Li 15.0872 8.3824 11.3784
Li 6.1758 10.3255 11.3784
Li 12.0721 12.2686 11.3784
Li 3.1607 14.2116 11.3784
Li 9.0569 16.1547 11.3784
Li 14.9532 18.0978 11.3784
Li 6.0418 20.0408 11.3784
Li 11.9381 21.9839 11.3784
Li 3.0267 23.9270 11.3784
O 2.7463 1.1716 11.6719
O 8.6426 3.1146 11.6719
O 14.5388 5.0577 11.6719
O 5.6274 7.0008 11.6719
O 11.5237 8.9439 11.6719
O 2.6123 10.8869 11.6719
O 8.5085 12.8300 11.6719
O 14.4048 14.7731 11.6719
O 5.4934 16.7162 11.6719
O 11.3897 18.6592 11.6719
O 2.4783 20.6023 11.6719
O 8.3745 22.5454 11.6719
O 14.2708 24.4885 11.6719
Li 9.3446 1.3105 11.8076
Li 0.4332 3.2536 11.8076
Li 6.3294 5.1967 11.8076
Li 12.2257 7.1397 11.8076
Li 3.3143 9.0828 11.8076
Li 9.2106 11.0259 11.8076
Li 15.1068 12.9690 11.8076
Li 6.1954 14.9120 11.8076
Li 12.0917 16.8551 11.8076
Li 3.1803 18.7982 11.8076
Li 9.0765 20.7412 11.8076
Li 14.9728 22.6843 11.8076
Li 6.0614 24.6274 11.8076
Li 14.2102 1.0447 13.0550
Li 5.2989 2.9877 13.0550
Li 11.1951 4.9308 13.0550
Li 2.2838 6.8739 13.0550
Li 8.1800 8.8170 13.0550
Li 14.0762 10.7600 13.0550
Li 5.1649 12.7031 13.0550
Li 11.0611 14.6462 13.0550
Li 2.1498 16.5893 13.0550
Li 8.0460 18.5323 13.0550
Li 13.9422 20.4754 13.0550
Li 5.0309 22.4185 13.0550
Li 10.9271 24.3616 13.0550
O 6.0009 1.1836 13.1907
O 11.8971 3.1267 13.1907
O 2.9858 5.0698 13.1907
O 8.8820 7.0128 13.1907
O 14.7782 8.9559 13.1907
O 5.8669 10.8990 13.1907
O 11.7631 12.8421 13.1907
O 2.8518 14.7851 13.1907
O 8.7480 16.7282 13.1907
O 14.6442 18.6713 13.1907
O 5.7329 20.6144 13.1907
O 11.6291 22.5574 13.1907
O 2.7178 24.5005 13.1907
Li 2.4374 1.7451 13.4842
Li 8.3336 3.6881 13.4842
Li 14.2298 5.6312 13.4842
Li 5.3185 7.5743 13.4842
Li 11.2147 9.5174 13.4842
Li 2.3034 11.4604 13.4842
Li 8.1996 13.4035 13.4842
Li 14.0958 15.3466 13.4842
Li 5.1845 17.2897 13.4842
Li 11.0807 19.2327 13.4842
Li 16.9770 21.1758 13.4842
Li 8.0656 23.1189 13.4842
Li 13.9618 25.0620 13.4842
O 9.5450 0.5997 13.6468
O 0.6336 2.5427 13.6468
O 6.5299 4.4858 13.6468
O 12.4261 6.4289 13.6468
O 3.5147 8.3720 13.6468
O 9.4110 10.3150 13.6468
O 15.3072 12.2581 13.6468
O 6.3959 14.2012 13.6468
O 12.2921 16.1443 13.6468
O 3.3807 18.0873 13.6468
O 9.2770 20.0304 13.6468
O 15.1732 21.9735 13.6468
O 6.2618 23.9166 13.6468
O 12.6033 1.2261 14.1931
O 3.6920 3.1692 14.1931
O 9.5882 5.1123 14.1931
O 15.4844 7.0553 14.1931
O 6.5731 8.9984 14.1931
O 12.4693 10.9415 14.1931
O 3.5580 12.8846 14.1931
O 9.4542 14.8276 14.1931
O 15.3504 16.7707 14.1931
O 6.4391 18.7138 14.1931
O 12.3353 20.6569 14.1931
O 3.4240 22.5999 14.1931
O 9.3202 24.5430 14.1931
C 6.2177 0.5050 14.2649
C 12.1139 2.4481 14.2649
C 3.2025 4.3912 14.2649
C 9.0988 6.3342 14.2649
C 14.9950 8.2773 14.2649
C 6.0837 10.2204 14.2649
C 11.9799 12.1634 14.2649
C 3.0685 14.1065 14.2649
C 8.9648 16.0496 14.2649
C 14.8610 17.9927 14.2649
C 5.9496 19.9357 14.2649
C 11.8459 21.8788 14.2649
C 2.9345 23.8219 14.2649
C 9.2764 1.1301 14.8133
C 0.3651 3.0732 14.8133
C 6.2613 5.0163 14.8133
C 12.1575 6.9594 14.8133
C 3.2462 8.9024 14.8133
C 9.1424 10.8455 14.8133
C 15.0386 12.7886 14.8133
C 6.1273 14.7317 14.8133
C 12.0235 16.6747 14.8133
C 3.1122 18.6178 14.8133
C 9.0084 20.5609 14.8133
C 14.9046 22.5040 14.8133
C 5.9933 24.4470 14.8133
O 2.8908 0.4090 14.8851
O 8.7870 2.3521 14.8851
O 14.6832 4.2952 14.8851
O 5.7719 6.2383 14.8851
O 11.6681 8.1813 14.8851
O 2.7568 10.1244 14.8851
O 8.6530 12.0675 14.8851
O 14.5492 14.0106 14.8851
O 5.6379 15.9536 14.8851
O 11.5341 17.8967 14.8851
O 2.6228 19.8398 14.8851
O 8.5190 21.7829 14.8851
O 14.4152 23.7259 14.8851
O 5.9491 1.0355 15.4314
O 11.8453 2.9785 15.4314
O 2.9340 4.9216 15.4314
O 8.8302 6.8647 15.4314
O 14.7264 8.8078 15.4314
O 5.8151 10.7508 15.4314
O 11.7113 12.6939 15.4314
O 2.8000 14.6370 15.4314
O 8.6962 16.5801 15.4314
O 14.5924 18.5231 15.4314
O 5.6811 20.4662 15.4314
O 11.5773 22.4093 15.4314
O 2.6660 24.3524 15.4314
Li 4.1453 1.8331 15.5940
Li 10.0416 3.7762 15.5940
Li 1.1302 5.7193 15.5940
Li 7.0265 7.6624 15.5940
Li 12.9227 9.6054 15.5940
Li 4.0113 11.5485 15.5940
Li 9.9076 13.4916 15.5940
Li 15.8038 15.4347 15.5940
Li 6.8924 17.3777 15.5940
Li 12.7887 19.3208 15.5940
Li 3.8773 21.2639 15.5940
Li 9.7736 23.2070 15.5940
Li 15.6698 25.1500 15.5940
O 9.4932 0.4515 15.8875
O 0.5818 2.3946 15.8875
O 6.4780 4.3377 15.8875
O 12.3743 6.2808 15.8875
O 3.4629 8.2238 15.8875
O 9.3592 10.1669 15.8875
O 15.2554 12.1100 15.8875
O 6.3440 14.0531 15.8875
O 12.2403 15.9961 15.8875
O 3.3289 17.9392 15.8875
O 9.2252 19.8823 15.8875
O 15.1214 21.8254 15.8875
O 6.2100 23.7684 15.8875
Li 10.0566 25.2569 17.6556
Li 13.1053 0.4325 17.6556
Li 3.9594 0.8680 17.6556
Li 9.6211 1.3035 17.6556
Li 0.4753 1.7390 17.6556
Li 6.1370 2.1745 17.6556
Li 11.7987 2.6100 17.6556
Li 2.6529 3.0456 17.6556
Li 8.3146 3.4811 17.6556
Li 13.9763 3.9166 17.6556
Li 4.8304 4.3521 17.6556
Li 10.4922 4.7876 17.6556
Li 1.3463 5.2231 17.6556
Li 7.0080 5.6587 17.6556
Li 12.6697 6.0942 17.6556
Li 3.5239 6.5297 17.6556
Li 9.1856 6.9652 17.6556
Li 14.8473 7.4007 17.6556
Li 5.7015 7.8362 17.6556
Li 11.3632 8.2718 17.6556
Li 2.2173 8.7073 17.6556
Li 7.8791 9.1428 17.6556
Li 13.5408 9.5783 17.6556
Li 4.3949 10.0138 17.6556
Li 10.0566 10.4493 17.6556
Li 15.7184 10.8849 17.6556
Li 6.5725 11.3204 17.6556
Li 12.2342 11.7559 17.6556
Li 3.0884 12.1914 17.6556
Li 8.7501 12.6269 17.6556
Li 14.4118 13.0624 17.6556
Li 5.2660 13.4980 17.6556
Li 10.9277 13.9335 17.6556
Li 1.7818 14.3690 17.6556
Li 7.4435 14.8045 17.6556
Li 13.1053 15.2400 17.6556
Li 3.9594 15.6755 17.6556
Li 9.6211 16.1111 17.6556
Li 15.2828 16.5466 17.6556
Li 6.1370 16.9821 17.6556
Li 11.7987 17.4176 17.6556
Li 2.6529 17.8531 17.6556
Li 8.3146 18.2886 17.6556
Li 13.9763 18.7242 17.6556
Li 4.8304 19.1597 17.6556
Li 10.4922 19.5952 17.6556
Li 16.1539 20.0307 17.6556
Li 7.0080 20.4662 17.6556
Li 12.6697 20.9017 17.6556
Li 3.5239 21.3373 17.6556
Li 9.1856 21.7728 17.6556
Li 14.8473 22.2083 17.6556
Li 5.7015 22.6438 17.6556
Li 11.3632 23.0793 17.6556
Li 17.0249 23.5148 17.6556
Li 7.8791 23.9504 17.6556
Li 13.5408 24.3859 17.6556
Li 4.3949 24.8214 17.6556
O 5.7015 0.4325 18.5069
O 2.2173 1.3035 18.5069
O 13.5408 2.1745 18.5069
O 10.0566 3.0456 18.5069
O 6.5725 3.9166 18.5069
O 3.0884 4.7876 18.5069
O 14.4118 5.6587 18.5069
O 10.9277 6.5297 18.5069
O 7.4435 7.4007 18.5069
O 3.9594 8.2718 18.5069
O 15.2828 9.1428 18.5069
O 11.7987 10.0138 18.5069
O 8.3146 10.8849 18.5069
O 4.8304 11.7559 18.5069
O 1.3463 12.6269 18.5069
O 12.6697 13.4980 18.5069
O 9.1856 14.3690 18.5069
O 5.7015 15.2400 18.5069
O 2.2173 16.1111 18.5069
O 13.5408 16.9821 18.5069
O 10.0566 17.8531 18.5069
O 6.5725 18.7242 18.5069
O 3.0884 19.5952 18.5069
O 14.4118 20.4662 18.5069
O 10.9277 21.3373 18.5069
O 7.4435 22.2083 18.5069
O 3.9594 23.0793 18.5069
O 15.2828 23.9504 18.5069
O 11.7987 24.8214 18.5069
H 5.7015 0.4325 19.4770
H 2.2173 1.3035 19.4770
H 13.5408 2.1745 19.4770
H 10.0566 3.0456 19.4770
H 6.5725 3.9166 19.4770
H 3.0884 4.7876 19.4770
H 14.4118 5.6587 19.4770
H 10.9277 6.5297 19.4770
H 7.4435 7.4007 19.4770
H 3.9594 8.2718 19.4770
H 15.2828 9.1428 19.4770
H 11.7987 10.0138 19.4770
H 8.3146 10.8849 19.4770
H 4.8304 11.7559 19.4770
H 1.3463 12.6269 19.4770
H 12.6697 13.4980 19.4770
H 9.1856 14.3690 19.4770
H 5.7015 15.2400 19.4770
H 2.2173 16.1111 19.4770
H 13.5408 16.9821 19.4770
H 10.0566 17.8531 19.4770
H 6.5725 18.7242 19.4770
H 3.0884 19.5952 19.4770
H 14.4118 20.4662 19.4770
H 10.9277 21.3373 19.4770
H 7.4435 22.2083 19.4770
H 3.9594 23.0793 19.4770
H 15.2828 23.9504 19.4770
H 11.7987 24.8214 19.4770
H 2.6529 25.2569 20.2446
H 11.3632 0.8680 20.2446
H 7.8791 1.7390 20.2446
H 4.3949 2.6100 20.2446
H 0.9108 3.4811 20.2446
H 12.2342 4.3521 20.2446
H 8.7501 5.2231 20.2446
H 5.2660 6.0942 20.2446
H 1.7818 6.9652 20.2446
H 13.1053 7.8362 20.2446
H 9.6211 8.7073 20.2446
H 6.1370 9.5783 20.2446
H 2.6529 10.4493 20.2446
H 13.9763 11.3204 20.2446
H 10.4922 12.1914 20.2446
H 7.0080 13.0624 20.2446
H 3.5239 13.9335 20.2446
H 14.8473 14.8045 20.2446
H 11.3632 15.6755 20.2446
H 7.8791 16.5466 20.2446
H 4.3949 17.4176 20.2446
H 15.7184 18.2886 20.2446
H 12.2342 19.1597 20.2446
H 8.7501 20.0307 20.2446
H 5.2660 20.9017 20.2446
H 16.5894 21.7728 20.2446
H 13.1053 22.6438 20.2446
H 9.6211 23.5148 20.2446
H 6.1370 24.3859 20.2446
O 2.6529 25.2569 21.2147
O 11.3632 0.8680 21.2147
O 7.8791 1.7390 21.2147
O 4.3949 2.6100 21.2147
O 0.9108 3.4811 21.2147
O 12.2342 4.3521 21.2147
O 8.7501 5.2231 21.2147
O 5.2660 6.0942 21.2147
O 1.7818 6.9652 21.2147
O 13.1053 7.8362 21.2147
O 9.6211 8.7073 21.2147
O 6.1370 9.5783 21.2147
O 2.6529 10.4493 21.2147
O 13.9763 11.3204 21.2147
O 10.4922 12.1914 21.2147
O 7.0080 13.0624 21.2147
O 3.5239 13.9335 21.2147
O 14.8473 14.8045 21.2147
O 11.3632 15.6755 21.2147
O 7.8791 16.5466 21.2147
O 4.3949 17.4176 21.2147
O 15.7184 18.2886 21.2147
O 12.2342 19.1597 21.2147
O 8.7501 20.0307 21.2147
O 5.2660 20.9017 21.2147
O 16.5894 21.7728 21.2147
O 13.1053 22.6438 21.2147
O 9.6211 23.5148 21.2147
O 6.1370 24.3859 21.2147
Li 10.0566 25.2569 22.0661
Li 13.1053 0.4325 22.0661
Li 3.9594 0.8680 22.0661
Li 9.6211 1.3035 22.0661
Li 0.4753 1.7390 22.0661
Li 6.1370 2.1745 22.0661
Li 11.7987 2.6100 22.0661
Li 2.6529 3.0456 22.0661
Li 8.3146 3.4811 22.0661
Li 13.9763 3.9166 22.0661
Li 4.8304 4.3521 22.0661
Li 10.4922 4.7876 22.0661
Li 1.3463 5.2231 22.0661
Li 7.0080 5.6587 22.0661
Li 12.6697 6.0942 22.0661
Li 3.5239 6.5297 22.0661
Li 9.1856 6.9652 22.0661
Li 14.8473 7.4007 22.0661
Li 5.7015 7.8362 22.0661
Li 11.3632 8.2718 22.0661
Li 2.2173 8.7073 22.0661
Li 7.8791 9.1428 22.0661
Li 13.5408 9.5783 22.0661
Li 4.3949 10.0138 22.0661
Li 10.0566 10.4493 22.0661
Li 15.7184 10.8849 22.0661
Li 6.5725 11.3204 22.0661
Li 12.2342 11.7559 22.0661
Li 3.0884 12.1914 22.0661
Li 8.7501 12.6269 22.0661
Li 14.4118 13.0624 22.0661
Li 5.2660 13.4980 22.0661
Li 10.9277 13.9335 22.0661
Li 1.7818 14.3690 22.0661
Li 7.4435 14.8045 22.0661
Li 13.1053 15.2400 22.0661
Li 3.9594 15.6755 22.0661
Li 9.6211 16.1111 22.0661
Li 15.2828 16.5466 22.0661
Li 6.1370 16.9821 22.0661
Li 11.7987 17.4176 22.0661
Li 2.6529 17.8531 22.0661
Li 8.3146 18.2886 22.0661
Li 13.9763 18.7242 22.0661
Li 4.8304 19.1597 22.0661
Li 10.4922 19.5952 22.0661
Li 16.1539 20.0307 22.0661
Li 7.0080 20.4662 22.0661
Li 12.6697 20.9017 22.0661
Li 3.5239 21.3373 22.0661
Li 9.1856 21.7728 22.0661
Li 14.8473 22.2083 22.0661
Li 5.7015 22.6438 22.0661
Li 11.3632 23.0793 22.0661
Li 17.0249 23.5148 22.0661
Li 7.8791 23.9504 22.0661
Li 13.5408 24.3859 22.0661
Li 4.3949 24.8214 22.0661
O 5.7015 0.4325 22.9174
O 2.2173 1.3035 22.9174
O 13.5408 2.1745 22.9174
O 10.0566 3.0456 22.9174
O 6.5725 3.9166 22.9174
O 3.0884 4.7876 22.9174
O 14.4118 5.6587 22.9174
O 10.9277 6.5297 22.9174
O 7.4435 7.4007 22.9174
O 3.9594 8.2718 22.9174
O 15.2828 9.1428 22.9174
O 11.7987 10.0138 22.9174
O 8.3146 10.8849 22.9174
O 4.8304 11.7559 22.9174
O 1.3463 12.6269 22.9174
O 12.6697 13.4980 22.9174
O 9.1856 14.3690 22.9174
O 5.7015 15.2400 22.9174
O 2.2173 16.1111 22.9174
O 13.5408 16.9821 22.9174
O 10.0566 17.8531 22.9174
O 6.5725 18.7242 22.9174
O 3.0884 19.5952 22.9174
O 14.4118 20.4662 22.9174
O 10.9277 21.3373 22.9174
O 7.4435 22.2083 22.9174
O 3.9594 23.0793 22.9174
O 15.2828 23.9504 22.9174
O 11.7987 24.8214 22.9174
H 5.7015 0.4325 23.8875
H 2.2173 1.3035 23.8875
H 13.5408 2.1745 23.8875
H 10.0566 3.0456 23.8875
H 6.5725 3.9166 23.8875
H 3.0884 4.7876 23.8875
H 14.4118 5.6587 23.8875
H 10.9277 6.5297 23.8875
H 7.4435 7.4007 23.8875
H 3.9594 8.2718 23.8875
H 15.2828 9.1428 23.8875
H 11.7987 10.0138 23.8875
H 8.3146 10.8849 23.8875
H 4.8304 11.7559 23.8875
H 1.3463 12.6269 23.8875
H 12.6697 13.4980 23.8875
H 9.1856 14.3690 23.8875
H 5.7015 15.2400 23.8875
H 2.2173 16.1111 23.8875
H 13.5408 16.9821 23.8875
H 10.0566 17.8531 23.8875
H 6.5725 18.7242 23.8875
H 3.0884 19.5952 23.8875
H 14.4118 20.4662 23.8875
H 10.9277 21.3373 23.8875
H 7.4435 22.2083 23.8875
H 3.9594 23.0793 23.8875
H 15.2828 23.9504 23.8875
H 11.7987 24.8214 23.8875
H 2.6529 25.2569 24.6551
H 11.3632 0.8680 24.6551
H 7.8791 1.7390 24.6551
H 4.3949 2.6100 24.6551
H 0.9108 3.4811 24.6551
H 12.2342 4.3521 24.6551
H 8.7501 5.2231 24.6551
H 5.2660 6.0942 24.6551
H 1.7818 6.9652 24.6551
H 13.1053 7.8362 24.6551
H 9.6211 8.7073 24.6551
H 6.1370 9.5783 24.6551
H 2.6529 10.4493 24.6551
H 13.9763 11.3204 24.6551
H 10.4922 12.1914 24.6551
H 7.0080 13.0624 24.6551
H 3.5239 13.9335 24.6551
H 14.8473 14.8045 24.6551
H 11.3632 15.6755 24.6551
H 7.8791 16.5466 24.6551
H 4.3949 17.4176 24.6551
H 15.7184 18.2886 24.6551
H 12.2342 19.1597 24.6551
H 8.7501 20.0307 24.6551
H 5.2660 20.9017 24.6551
H 16.5894 21.7728 24.6551
H 13.1053 22.6438 24.6551
H 9.6211 23.5148 24.6551
H 6.1370 24.3859 24.6551
O 2.6529 25.2569 25.6252
O 11.3632 0.8680 25.6252
O 7.8791 1.7390 25.6252
O 4.3949 2.6100 25.6252
O 0.9108 3.4811 25.6252
O 12.2342 4.3521 25.6252
O 8.7501 5.2231 25.6252
O 5.2660 6.0942 25.6252
O 1.7818 6.9652 25.6252
O 13.1053 7.8362 25.6252
O 9.6211 8.7073 25.6252
O 6.1370 9.5783 25.6252
O 2.6529 10.4493 25.6252
O 13.9763 11.3204 25.6252
O 10.4922 12.1914 25.6252
O 7.0080 13.0624 25.6252
O 3.5239 13.9335 25.6252
O 14.8473 14.8045 25.6252
O 11.3632 15.6755 25.6252
O 7.8791 16.5466 25.6252
O 4.3949 17.4176 25.6252
O 15.7184 18.2886 25.6252
O 12.2342 19.1597 25.6252
O 8.7501 20.0307 25.6252
O 5.2660 20.9017 25.6252
O 16.5894 21.7728 25.6252
O 13.1053 22.6438 25.6252
O 9.6211 23.5148 25.6252
O 6.1370 24.3859 25.6252
Li 10.0566 25.2569 26.4765
Li 13.1053 0.4325 26.4765
Li 3.9594 0.8680 26.4765
Li 9.6211 1.3035 26.4765
Li 0.4753 1.7390 26.4765
Li 6.1370 2.1745 26.4765
Li 11.7987 2.6100 26.4765
Li 2.6529 3.0456 26.4765
Li 8.3146 3.4811 26.4765
Li 13.9763 3.9166 26.4765
Li 4.8304 4.3521 26.4765
Li 10.4922 4.7876 26.4765
Li 1.3463 5.2231 26.4765
Li 7.0080 5.6587 26.4765
Li 12.6697 6.0942 26.4765
Li 3.5239 6.5297 26.4765
Li 9.1856 6.9652 26.4765
Li 14.8473 7.4007 26.4765
Li 5.7015 7.8362 26.4765
Li 11.3632 8.2718 26.4765
Li 2.2173 8.7073 26.4765
Li 7.8791 9.1428 26.4765
Li 13.5408 9.5783 26.4765
Li 4.3949 10.0138 26.4765
Li 10.0566 10.4493 26.4765
Li 15.7184 10.8849 26.4765
Li 6.5725 11.3204 26.4765
Li 12.2342 11.7559 26.4765
Li 3.0884 12.1914 26.4765
Li 8.7501 12.6269 26.4765
Li 14.4118 13.0624 26.4765
Li 5.2660 13.4980 26.4765
Li 10.9277 13.9335 26.4765
Li 1.7818 14.3690 26.4765
Li 7.4435 14.8045 26.4765
Li 13.1053 15.2400 26.4765
Li 3.9594 15.6755 26.4765
Li 9.6211 16.1111 26.4765
Li 15.2828 16.5466 26.4765
Li 6.1370 16.9821 26.4765
Li 11.7987 17.4176 26.4765
Li 2.6529 17.8531 26.4765
Li 8.3146 18.2886 26.4765
Li 13.9763 18.7242 26.4765
Li 4.8304 19.1597 26.4765
Li 10.4922 19.5952 26.4765
Li 16.1539 20.0307 26.4765
Li 7.0080 20.4662 26.4765
Li 12.6697 20.9017 26.4765
Li 3.5239 21.3373 26.4765
Li 9.1856 21.7728 26.4765
Li 14.8473 22.2083 26.4765
Li 5.7015 22.6438 26.4765
Li 11.3632 23.0793 26.4765
Li 17.0249 23.5148 26.4765
Li 7.8791 23.9504 26.4765
Li 13.5408 24.3859 26.4765
Li 4.3949 24.8214 26.4765
O 5.7015 0.4325 27.3278
O 2.2173 1.3035 27.3278
O 13.5408 2.1745 27.3278
O 10.0566 3.0456 27.3278
O 6.5725 3.9166 27.3278
O 3.0884 4.7876 27.3278
O 14.4118 5.6587 27.3278
O 10.9277 6.5297 27.3278
O 7.4435 7.4007 27.3278
O 3.9594 8.2718 27.3278
O 15.2828 9.1428 27.3278
O 11.7987 10.0138 27.3278
O 8.3146 10.8849 27.3278
O 4.8304 11.7559 27.3278
O 1.3463 12.6269 27.3278
O 12.6697 13.4980 27.3278
O 9.1856 14.3690 27.3278
O 5.7015 15.2400 27.3278
O 2.2173 16.1111 27.3278
O 13.5408 16.9821 27.3278
O 10.0566 17.8531 27.3278
O 6.5725 18.7242 27.3278
O 3.0884 19.5952 27.3278
O 14.4118 20.4662 27.3278
O 10.9277 21.3373 27.3278
O 7.4435 22.2083 27.3278
O 3.9594 23.0793 27.3278
O 15.2828 23.9504 27.3278
O 11.7987 24.8214 27.3278
H 5.7015 0.4325 28.2979
H 2.2173 1.3035 28.2979
H 13.5408 2.1745 28.2979
H 10.0566 3.0456 28.2979
H 6.5725 3.9166 28.2979
H 3.0884 4.7876 28.2979
H 14.4118 5.6587 28.2979
H 10.9277 6.5297 28.2979
H 7.4435 7.4007 28.2979
H 3.9594 8.2718 28.2979
H 15.2828 9.1428 28.2979
H 11.7987 10.0138 28.2979
H 8.3146 10.8849 28.2979
H 4.8304 11.7559 28.2979
H 1.3463 12.6269 28.2979
H 12.6697 13.4980 28.2979
H 9.1856 14.3690 28.2979
H 5.7015 15.2400 28.2979
H 2.2173 16.1111 28.2979
H 13.5408 16.9821 28.2979
H 10.0566 17.8531 28.2979
H 6.5725 18.7242 28.2979
H 3.0884 19.5952 28.2979
H 14.4118 20.4662 28.2979
H 10.9277 21.3373 28.2979
H 7.4435 22.2083 28.2979
H 3.9594 23.0793 28.2979
H 15.2828 23.9504 28.2979
H 11.7987 24.8214 28.2979
H 2.6529 25.2569 29.0656
H 11.3632 0.8680 29.0656
H 7.8791 1.7390 29.0656
H 4.3949 2.6100 29.0656
H 0.9108 3.4811 29.0656
H 12.2342 4.3521 29.0656
H 8.7501 5.2231 29.0656
H 5.2660 6.0942 29.0656
H 1.7818 6.9652 29.0656
H 13.1053 7.8362 29.0656
H 9.6211 8.7073 29.0656
H 6.1370 9.5783 29.0656
H 2.6529 10.4493 29.0656
H 13.9763 11.3204 29.0656
H 10.4922 12.1914 29.0656
H 7.0080 13.0624 29.0656
H 3.5239 13.9335 29.0656
H 14.8473 14.8045 29.0656
H 11.3632 15.6755 29.0656
H 7.8791 16.5466 29.0656
H 4.3949 17.4176 29.0656
H 15.7184 18.2886 29.0656
H 12.2342 19.1597 29.0656
H 8.7501 20.0307 29.0656
H 5.2660 20.9017 29.0656
H 16.5894 21.7728 29.0656
H 13.1053 22.6438 29.0656
H 9.6211 23.5148 29.0656
H 6.1370 24.3859 29.0656
O 2.6529 25.2569 30.0357
O 11.3632 0.8680 30.0357
O 7.8791 1.7390 30.0357
O 4.3949 2.6100 30.0357
O 0.9108 3.4811 30.0357
O 12.2342 4.3521 30.0357
O 8.7501 5.2231 30.0357
O 5.2660 6.0942 30.0357
O 1.7818 6.9652 30.0357
O 13.1053 7.8362 30.0357
O 9.6211 8.7073 30.0357
O 6.1370 9.5783 30.0357
O 2.6529 10.4493 30.0357
O 13.9763 11.3204 30.0357
O 10.4922 12.1914 30.0357
O 7.0080 13.0624 30.0357
O 3.5239 13.9335 30.0357
O 14.8473 14.8045 30.0357
O 11.3632 15.6755 30.0357
O 7.8791 16.5466 30.0357
O 4.3949 17.4176 30.0357
O 15.7184 18.2886 30.0357
O 12.2342 19.1597 30.0357
O 8.7501 20.0307 30.0357
O 5.2660 20.9017 30.0357
O 16.5894 21.7728 30.0357
O 13.1053 22.6438 30.0357
O 9.6211 23.5148 30.0357
O 6.1370 24.3859 30.0357
Li 10.0566 25.2569 30.8870
Li 13.1053 0.4325 30.8870
Li 3.9594 0.8680 30.8870
Li 9.6211 1.3035 30.8870
Li 0.4753 1.7390 30.8870
Li 6.1370 2.1745 30.8870
Li 11.7987 2.6100 30.8870
Li 2.6529 3.0456 30.8870
Li 8.3146 3.4811 30.8870
Li 13.9763 3.9166 30.8870
Li 4.8304 4.3521 30.8870
Li 10.4922 4.7876 30.8870
Li 1.3463 5.2231 30.8870
Li 7.0080 5.6587 30.8870
Li 12.6697 6.0942 30.8870
Li 3.5239 6.5297 30.8870
Li 9.1856 6.9652 30.8870
Li 14.8473 7.4007 30.8870
Li 5.7015 7.8362 30.8870
Li 11.3632 8.2718 30.8870
Li 2.2173 8.7073 30.8870
Li 7.8791 9.1428 30.8870
Li 13.5408 9.5783 30.8870
Li 4.3949 10.0138 30.8870
Li 10.0566 10.4493 30.8870
Li 15.7184 10.8849 30.8870
Li 6.5725 11.3204 30.8870
Li 12.2342 11.7559 30.8870
Li 3.0884 12.1914 30.8870
Li 8.7501 12.6269 30.8870
Li 14.4118 13.0624 30.8870
Li 5.2660 13.4980 30.8870
Li 10.9277 13.9335 30.8870
Li 1.7818 14.3690 30.8870
Li 7.4435 14.8045 30.8870
Li 13.1053 15.2400 30.8870
Li 3.9594 15.6755 30.8870
Li 9.6211 16.1111 30.8870
Li 15.2828 16.5466 30.8870
Li 6.1370 16.9821 30.8870
Li 11.7987 17.4176 30.8870
Li 2.6529 17.8531 30.8870
Li 8.3146 18.2886 30.8870
Li 13.9763 18.7242 30.8870
Li 4.8304 19.1597 30.8870
Li 10.4922 19.5952 30.8870
Li 16.1539 20.0307 30.8870
Li 7.0080 20.4662 30.8870
Li 12.6697 20.9017 30.8870
Li 3.5239 21.3373 30.8870
Li 9.1856 21.7728 30.8870
Li 14.8473 22.2083 30.8870
Li 5.7015 22.6438 30.8870
Li 11.3632 23.0793 30.8870
Li 17.0249 23.5148 30.8870
Li 7.8791 23.9504 30.8870
Li 13.5408 24.3859 30.8870
Li 4.3949 24.8214 30.8870
O 5.7015 0.4325 31.7383
O 2.2173 1.3035 31.7383
O 13.5408 2.1745 31.7383
O 10.0566 3.0456 31.7383
O 6.5725 3.9166 31.7383
O 3.0884 4.7876 31.7383
O 14.4118 5.6587 31.7383
O 10.9277 6.5297 31.7383
O 7.4435 7.4007 31.7383
O 3.9594 8.2718 31.7383
O 15.2828 9.1428 31.7383
O 11.7987 10.0138 31.7383
O 8.3146 10.8849 31.7383
O 4.8304 11.7559 31.7383
O 1.3463 12.6269 31.7383
O 12.6697 13.4980 31.7383
O 9.1856 14.3690 31.7383
O 5.7015 15.2400 31.7383
O 2.2173 16.1111 31.7383
O 13.5408 16.9821 31.7383
O 10.0566 17.8531 31.7383
O 6.5725 18.7242 31.7383
O 3.0884 19.5952 31.7383
O 14.4118 20.4662 31.7383
O 10.9277 21.3373 31.7383
O 7.4435 22.2083 31.7383
O 3.9594 23.0793 31.7383
O 15.2828 23.9504 31.7383
O 11.7987 24.8214 31.7383
