385
XYZ file generated by QuantumATK for match 56
Li 0.0000 -0.3906 1.0000
F 2.0086 -0.3906 1.0000
Li 4.0173 -0.3906 1.0000
F 6.0259 -0.3906 1.0000
F -0.0000 -2.3992 1.0000
Li 2.0087 -2.3992 1.0000
F 4.0173 -2.3992 1.0000
Li 6.0259 -2.3992 1.0000
Li -0.0000 -4.4079 1.0000
F 2.0087 -4.4079 1.0000
Li 4.0173 -4.4079 1.0000
F 6.0259 -4.4079 1.0000
F -0.0000 -6.4165 1.0000
Li 2.0086 -6.4165 1.0000
F 4.0173 -6.4165 1.0000
Li 6.0259 -6.4165 1.0000
Li -0.0000 -8.4252 1.0000
F 2.0086 -8.4252 1.0000
Li 4.0173 -8.4252 1.0000
F 6.0259 -8.4252 1.0000
F -0.0000 -10.4338 1.0000
Li 2.0087 -10.4338 1.0000
F 4.0173 -10.4338 1.0000
Li 6.0259 -10.4338 1.0000
Li -0.0000 -12.4425 1.0000
F 2.0086 -12.4425 1.0000
Li 4.0173 -12.4425 1.0000
F 6.0259 -12.4425 1.0000
F 0.0000 -0.3906 3.0086
Li 2.0087 -0.3906 3.0086
F 4.0173 -0.3906 3.0086
Li 6.0260 -0.3906 3.0086
Li 0.0000 -2.3992 3.0086
F 2.0087 -2.3992 3.0086
Li 4.0173 -2.3992 3.0086
F 6.0259 -2.3992 3.0086
F -0.0000 -4.4079 3.0086
Li 2.0087 -4.4079 3.0086
F 4.0173 -4.4079 3.0086
Li 6.0259 -4.4079 3.0086
Li 0.0000 -6.4165 3.0086
F 2.0086 -6.4165 3.0086
Li 4.0173 -6.4165 3.0086
F 6.0259 -6.4165 3.0086
F -0.0000 -8.4252 3.0086
Li 2.0086 -8.4252 3.0086
F 4.0173 -8.4252 3.0086
Li 6.0259 -8.4252 3.0086
Li 0.0000 -10.4338 3.0086
F 2.0087 -10.4338 3.0086
Li 4.0173 -10.4338 3.0086
F 6.0259 -10.4338 3.0086
F -0.0000 -12.4425 3.0086
Li 2.0086 -12.4425 3.0086
F 4.0173 -12.4425 3.0086
Li 6.0259 -12.4425 3.0086
Li 0.0000 -0.3906 5.0173
F 2.0086 -0.3906 5.0173
Li 4.0173 -0.3906 5.0173
F 6.0259 -0.3906 5.0173
F -0.0000 -2.3992 5.0173
Li 2.0087 -2.3992 5.0173
F 4.0173 -2.3992 5.0173
Li 6.0259 -2.3992 5.0173
Li -0.0000 -4.4079 5.0173
F 2.0087 -4.4079 5.0173
Li 4.0173 -4.4079 5.0173
F 6.0259 -4.4079 5.0173
F -0.0000 -6.4165 5.0173
Li 2.0086 -6.4165 5.0173
F 4.0173 -6.4165 5.0173
Li 6.0259 -6.4165 5.0173
Li -0.0000 -8.4252 5.0173
F 2.0086 -8.4252 5.0173
Li 4.0173 -8.4252 5.0173
F 6.0259 -8.4252 5.0173
F -0.0000 -10.4338 5.0173
Li 2.0087 -10.4338 5.0173
F 4.0173 -10.4338 5.0173
Li 6.0259 -10.4338 5.0173
Li -0.0000 -12.4425 5.0173
F 2.0086 -12.4425 5.0173
Li 4.0173 -12.4425 5.0173
F 6.0259 -12.4425 5.0173
F 0.0000 -0.3906 7.0260
Li 2.0087 -0.3906 7.0260
F 4.0173 -0.3906 7.0260
Li 6.0260 -0.3906 7.0260
Li 0.0000 -2.3992 7.0260
F 2.0087 -2.3992 7.0260
Li 4.0173 -2.3992 7.0260
F 6.0259 -2.3992 7.0260
F -0.0000 -4.4079 7.0260
Li 2.0087 -4.4079 7.0260
F 4.0173 -4.4079 7.0260
Li 6.0259 -4.4079 7.0260
Li 0.0000 -6.4165 7.0260
F 2.0086 -6.4165 7.0260
Li 4.0173 -6.4165 7.0260
F 6.0259 -6.4165 7.0260
F -0.0000 -8.4252 7.0260
Li 2.0086 -8.4252 7.0260
F 4.0173 -8.4252 7.0260
Li 6.0259 -8.4252 7.0260
Li 0.0000 -10.4338 7.0260
F 2.0087 -10.4338 7.0260
Li 4.0173 -10.4338 7.0260
F 6.0259 -10.4338 7.0260
F -0.0000 -12.4425 7.0260
Li 2.0086 -12.4425 7.0260
F 4.0173 -12.4425 7.0260
Li 6.0259 -12.4425 7.0260
Li 0.0000 -0.3906 9.0346
F 2.0086 -0.3906 9.0346
Li 4.0173 -0.3906 9.0346
F 6.0259 -0.3906 9.0346
F -0.0000 -2.3992 9.0346
Li 2.0087 -2.3992 9.0346
F 4.0173 -2.3992 9.0346
Li 6.0259 -2.3992 9.0346
Li -0.0000 -4.4079 9.0346
F 2.0087 -4.4079 9.0346
Li 4.0173 -4.4079 9.0346
F 6.0259 -4.4079 9.0346
F -0.0000 -6.4165 9.0346
Li 2.0086 -6.4165 9.0346
F 4.0173 -6.4165 9.0346
Li 6.0259 -6.4165 9.0346
Li -0.0000 -8.4252 9.0346
F 2.0086 -8.4252 9.0346
Li 4.0173 -8.4252 9.0346
F 6.0259 -8.4252 9.0346
F -0.0000 -10.4338 9.0346
Li 2.0087 -10.4338 9.0346
F 4.0173 -10.4338 9.0346
Li 6.0259 -10.4338 9.0346
Li -0.0000 -12.4425 9.0346
F 2.0086 -12.4425 9.0346
Li 4.0173 -12.4425 9.0346
F 6.0259 -12.4425 9.0346
F 0.0000 -0.3906 11.0432
Li 2.0087 -0.3906 11.0432
F 4.0173 -0.3906 11.0432
Li 6.0260 -0.3906 11.0432
Li 0.0000 -2.3992 11.0432
F 2.0087 -2.3992 11.0432
Li 4.0173 -2.3992 11.0432
F 6.0259 -2.3992 11.0432
F -0.0000 -4.4079 11.0432
Li 2.0087 -4.4079 11.0432
F 4.0173 -4.4079 11.0432
Li 6.0259 -4.4079 11.0432
Li 0.0000 -6.4165 11.0432
F 2.0086 -6.4165 11.0432
Li 4.0173 -6.4165 11.0432
F 6.0259 -6.4165 11.0432
F -0.0000 -8.4252 11.0432
Li 2.0086 -8.4252 11.0432
F 4.0173 -8.4252 11.0432
Li 6.0259 -8.4252 11.0432
Li 0.0000 -10.4338 11.0432
F 2.0087 -10.4338 11.0432
Li 4.0173 -10.4338 11.0432
F 6.0259 -10.4338 11.0432
F -0.0000 -12.4425 11.0432
Li 2.0086 -12.4425 11.0432
F 4.0173 -12.4425 11.0432
Li 6.0259 -12.4425 11.0432
Li 0.0000 -0.3906 13.0519
F 2.0086 -0.3906 13.0519
Li 4.0173 -0.3906 13.0519
F 6.0259 -0.3906 13.0519
F -0.0000 -2.3992 13.0519
Li 2.0087 -2.3992 13.0519
F 4.0173 -2.3992 13.0519
Li 6.0259 -2.3992 13.0519
Li -0.0000 -4.4079 13.0519
F 2.0087 -4.4079 13.0519
Li 4.0173 -4.4079 13.0519
F 6.0259 -4.4079 13.0519
F -0.0000 -6.4165 13.0519
Li 2.0086 -6.4165 13.0519
F 4.0173 -6.4165 13.0519
Li 6.0259 -6.4165 13.0519
Li -0.0000 -8.4252 13.0519
F 2.0086 -8.4252 13.0519
Li 4.0173 -8.4252 13.0519
F 6.0259 -8.4252 13.0519
F -0.0000 -10.4338 13.0519
Li 2.0087 -10.4338 13.0519
F 4.0173 -10.4338 13.0519
Li 6.0259 -10.4338 13.0519
Li -0.0000 -12.4425 13.0519
F 2.0086 -12.4425 13.0519
Li 4.0173 -12.4425 13.0519
F 6.0259 -12.4425 13.0519
Li 4.0173 -0.3906 15.1729
Li 1.6739 -1.1717 15.1729
Li 7.3651 -1.9529 15.1729
Li 5.0216 -2.7340 15.1729
Li 2.6782 -3.5151 15.1729
Li 0.3348 -4.2963 15.1729
Li 6.0259 -5.0774 15.1729
Li 3.6825 -5.8586 15.1729
Li 1.3391 -6.6397 15.1729
Li -1.0043 -7.4208 15.1729
Li 4.6869 -8.2020 15.1729
Li 2.3434 -8.9831 15.1729
Li 0.0000 -9.7643 15.1729
Li 5.6912 -10.5454 15.1729
Li 3.3478 -11.3266 15.1729
Li 1.0043 -12.1077 15.1729
Li -1.3391 -12.8888 15.1729
Li 4.3521 -13.6700 15.1729
O 5.6912 -1.1717 16.0242
O 1.0043 -2.7340 16.0242
O 4.3521 -4.2963 16.0242
O -0.3348 -5.8586 16.0242
O 3.0130 -7.4208 16.0242
O 6.3607 -8.9831 16.0242
O 1.6739 -10.5454 16.0242
O 5.0216 -12.1077 16.0242
O 0.3348 -13.6700 16.0242
H 5.6912 -1.1717 16.9943
H 1.0043 -2.7340 16.9943
H 4.3521 -4.2963 16.9943
H -0.3348 -5.8586 16.9943
H 3.0130 -7.4208 16.9943
H 6.3607 -8.9831 16.9943
H 1.6739 -10.5454 16.9943
H 5.0216 -12.1077 16.9943
H 0.3348 -13.6700 16.9943
H -0.0000 -0.3906 17.7619
H 3.3478 -1.9529 17.7619
H 6.6955 -3.5151 17.7619
H 2.0087 -5.0774 17.7619
H 5.3564 -6.6397 17.7619
H 0.6696 -8.2020 17.7619
H 4.0173 -9.7643 17.7619
H -0.6696 -11.3266 17.7619
H 2.6782 -12.8888 17.7619
O -0.0000 -0.3906 18.7320
O 3.3478 -1.9529 18.7320
O 6.6955 -3.5151 18.7320
O 2.0087 -5.0774 18.7320
O 5.3564 -6.6397 18.7320
O 0.6696 -8.2020 18.7320
O 4.0173 -9.7643 18.7320
O -0.6696 -11.3266 18.7320
O 2.6782 -12.8888 18.7320
Li 4.0173 -0.3906 19.5833
Li 1.6739 -1.1717 19.5833
Li 7.3651 -1.9529 19.5833
Li 5.0216 -2.7340 19.5833
Li 2.6782 -3.5151 19.5833
Li 0.3348 -4.2963 19.5833
Li 6.0259 -5.0774 19.5833
Li 3.6825 -5.8586 19.5833
Li 1.3391 -6.6397 19.5833
Li -1.0043 -7.4208 19.5833
Li 4.6869 -8.2020 19.5833
Li 2.3434 -8.9831 19.5833
Li 0.0000 -9.7643 19.5833
Li 5.6912 -10.5454 19.5833
Li 3.3478 -11.3266 19.5833
Li 1.0043 -12.1077 19.5833
Li -1.3391 -12.8888 19.5833
Li 4.3521 -13.6700 19.5833
O 5.6912 -1.1717 20.4347
O 1.0043 -2.7340 20.4347
O 4.3521 -4.2963 20.4347
O -0.3348 -5.8586 20.4347
O 3.0130 -7.4208 20.4347
O 6.3607 -8.9831 20.4347
O 1.6739 -10.5454 20.4347
O 5.0216 -12.1077 20.4347
O 0.3348 -13.6700 20.4347
H 5.6912 -1.1717 21.4048
H 1.0043 -2.7340 21.4048
H 4.3521 -4.2963 21.4048
H -0.3348 -5.8586 21.4048
H 3.0130 -7.4208 21.4048
H 6.3607 -8.9831 21.4048
H 1.6739 -10.5454 21.4048
H 5.0216 -12.1077 21.4048
H 0.3348 -13.6700 21.4048
H -0.0000 -0.3906 22.1724
H 3.3478 -1.9529 22.1724
H 6.6955 -3.5151 22.1724
H 2.0087 -5.0774 22.1724
H 5.3564 -6.6397 22.1724
H 0.6696 -8.2020 22.1724
H 4.0173 -9.7643 22.1724
H -0.6696 -11.3266 22.1724
H 2.6782 -12.8888 22.1724
O -0.0000 -0.3906 23.1425
O 3.3478 -1.9529 23.1425
O 6.6955 -3.5151 23.1425
O 2.0087 -5.0774 23.1425
O 5.3564 -6.6397 23.1425
O 0.6696 -8.2020 23.1425
O 4.0173 -9.7643 23.1425
O -0.6696 -11.3266 23.1425
O 2.6782 -12.8888 23.1425
Li 4.0173 -0.3906 23.9938
Li 1.6739 -1.1717 23.9938
Li 7.3651 -1.9529 23.9938
Li 5.0216 -2.7340 23.9938
Li 2.6782 -3.5151 23.9938
Li 0.3348 -4.2963 23.9938
Li 6.0259 -5.0774 23.9938
Li 3.6825 -5.8586 23.9938
Li 1.3391 -6.6397 23.9938
Li -1.0043 -7.4208 23.9938
Li 4.6869 -8.2020 23.9938
Li 2.3434 -8.9831 23.9938
Li 0.0000 -9.7643 23.9938
Li 5.6912 -10.5454 23.9938
Li 3.3478 -11.3266 23.9938
Li 1.0043 -12.1077 23.9938
Li -1.3391 -12.8888 23.9938
Li 4.3521 -13.6700 23.9938
O 5.6912 -1.1717 24.8451
O 1.0043 -2.7340 24.8451
O 4.3521 -4.2963 24.8451
O -0.3348 -5.8586 24.8451
O 3.0130 -7.4208 24.8451
O 6.3607 -8.9831 24.8451
O 1.6739 -10.5454 24.8451
O 5.0216 -12.1077 24.8451
O 0.3348 -13.6700 24.8451
H 5.6912 -1.1717 25.8152
H 1.0043 -2.7340 25.8152
H 4.3521 -4.2963 25.8152
H -0.3348 -5.8586 25.8152
H 3.0130 -7.4208 25.8152
H 6.3607 -8.9831 25.8152
H 1.6739 -10.5454 25.8152
H 5.0216 -12.1077 25.8152
H 0.3348 -13.6700 25.8152
H -0.0000 -0.3906 26.5829
H 3.3478 -1.9529 26.5829
H 6.6955 -3.5151 26.5829
H 2.0087 -5.0774 26.5829
H 5.3564 -6.6397 26.5829
H 0.6696 -8.2020 26.5829
H 4.0173 -9.7643 26.5829
H -0.6696 -11.3266 26.5829
H 2.6782 -12.8888 26.5829
O -0.0000 -0.3906 27.5530
O 3.3478 -1.9529 27.5530
O 6.6955 -3.5151 27.5530
O 2.0087 -5.0774 27.5530
O 5.3564 -6.6397 27.5530
O 0.6696 -8.2020 27.5530
O 4.0173 -9.7643 27.5530
O -0.6696 -11.3266 27.5530
O 2.6782 -12.8888 27.5530
Li 4.0173 -0.3906 28.4043
Li 1.6739 -1.1717 28.4043
Li 7.3651 -1.9529 28.4043
Li 5.0216 -2.7340 28.4043
Li 2.6782 -3.5151 28.4043
Li 0.3348 -4.2963 28.4043
Li 6.0259 -5.0774 28.4043
Li 3.6825 -5.8586 28.4043
Li 1.3391 -6.6397 28.4043
Li -1.0043 -7.4208 28.4043
Li 4.6869 -8.2020 28.4043
Li 2.3434 -8.9831 28.4043
Li 0.0000 -9.7643 28.4043
Li 5.6912 -10.5454 28.4043
Li 3.3478 -11.3266 28.4043
Li 1.0043 -12.1077 28.4043
Li -1.3391 -12.8888 28.4043
Li 4.3521 -13.6700 28.4043
O 5.6912 -1.1717 29.2556
O 1.0043 -2.7340 29.2556
O 4.3521 -4.2963 29.2556
O -0.3348 -5.8586 29.2556
O 3.0130 -7.4208 29.2556
O 6.3607 -8.9831 29.2556
O 1.6739 -10.5454 29.2556
O 5.0216 -12.1077 29.2556
O 0.3348 -13.6700 29.2556
