430
XYZ file generated by QuantumATK for match 55
Li 0.8154 0.1439 1.0000
F 12.0386 0.4317 1.0000
Li 10.2161 0.7194 1.0000
F 8.3935 1.0072 1.0000
Li 6.5709 1.2950 1.0000
F 4.7483 1.5828 1.0000
Li 2.9257 1.8705 1.0000
F 1.1031 2.1583 1.0000
Li 12.3264 2.4461 1.0000
F 10.5038 2.7339 1.0000
Li 8.6813 3.0217 1.0000
F 6.8587 3.3094 1.0000
Li 5.0361 3.5972 1.0000
F 3.2135 3.8850 1.0000
Li 1.3909 4.1728 1.0000
F 12.6142 4.4605 1.0000
Li 10.7916 4.7483 1.0000
F 8.9690 5.0361 1.0000
Li 7.1464 5.3239 1.0000
F 5.3239 5.6116 1.0000
Li 3.5013 5.8994 1.0000
F 14.7246 6.1872 1.0000
Li 12.9020 6.4750 1.0000
F 11.0794 6.7627 1.0000
Li 9.2568 7.0505 1.0000
F 7.4342 7.3383 1.0000
Li 5.6116 7.6261 1.0000
F 3.7891 7.9139 1.0000
Li 15.0123 8.2016 1.0000
F 13.1898 8.4894 1.0000
Li 11.3672 8.7772 1.0000
F 9.5446 9.0650 1.0000
Li 7.7220 9.3527 1.0000
F 5.8994 9.6405 1.0000
F 0.8154 0.1439 3.0086
Li 12.0386 0.4317 3.0086
F 10.2161 0.7194 3.0086
Li 8.3935 1.0072 3.0086
F 6.5709 1.2950 3.0086
Li 4.7483 1.5828 3.0086
F 2.9257 1.8705 3.0086
Li 1.1031 2.1583 3.0086
F 12.3264 2.4461 3.0086
Li 10.5038 2.7339 3.0086
F 8.6813 3.0217 3.0086
Li 6.8587 3.3094 3.0086
F 5.0361 3.5972 3.0086
Li 3.2135 3.8850 3.0086
F 1.3909 4.1728 3.0086
Li 12.6142 4.4605 3.0086
F 10.7916 4.7483 3.0086
Li 8.9690 5.0361 3.0086
F 7.1464 5.3239 3.0086
Li 5.3239 5.6116 3.0086
F 3.5013 5.8994 3.0086
Li 14.7246 6.1872 3.0086
F 12.9020 6.4750 3.0086
Li 11.0794 6.7627 3.0086
F 9.2568 7.0505 3.0086
Li 7.4342 7.3383 3.0086
F 5.6116 7.6261 3.0086
Li 3.7891 7.9139 3.0086
F 15.0123 8.2016 3.0086
Li 13.1898 8.4894 3.0086
F 11.3672 8.7772 3.0086
Li 9.5446 9.0650 3.0086
F 7.7220 9.3527 3.0086
Li 5.8994 9.6405 3.0086
Li 0.8154 0.1439 5.0173
F 12.0386 0.4317 5.0173
Li 10.2161 0.7194 5.0173
F 8.3935 1.0072 5.0173
Li 6.5709 1.2950 5.0173
F 4.7483 1.5828 5.0173
Li 2.9257 1.8705 5.0173
F 1.1031 2.1583 5.0173
Li 12.3264 2.4461 5.0173
F 10.5038 2.7339 5.0173
Li 8.6813 3.0217 5.0173
F 6.8587 3.3094 5.0173
Li 5.0361 3.5972 5.0173
F 3.2135 3.8850 5.0173
Li 1.3909 4.1728 5.0173
F 12.6142 4.4605 5.0173
Li 10.7916 4.7483 5.0173
F 8.9690 5.0361 5.0173
Li 7.1464 5.3239 5.0173
F 5.3239 5.6116 5.0173
Li 3.5013 5.8994 5.0173
F 14.7246 6.1872 5.0173
Li 12.9020 6.4750 5.0173
F 11.0794 6.7627 5.0173
Li 9.2568 7.0505 5.0173
F 7.4342 7.3383 5.0173
Li 5.6116 7.6261 5.0173
F 3.7891 7.9139 5.0173
Li 15.0123 8.2016 5.0173
F 13.1898 8.4894 5.0173
Li 11.3672 8.7772 5.0173
F 9.5446 9.0650 5.0173
Li 7.7220 9.3527 5.0173
F 5.8994 9.6405 5.0173
F 0.8154 0.1439 7.0259
Li 12.0386 0.4317 7.0259
F 10.2161 0.7194 7.0259
Li 8.3935 1.0072 7.0259
F 6.5709 1.2950 7.0259
Li 4.7483 1.5828 7.0259
F 2.9257 1.8705 7.0259
Li 1.1031 2.1583 7.0259
F 12.3264 2.4461 7.0259
Li 10.5038 2.7339 7.0259
F 8.6813 3.0217 7.0259
Li 6.8587 3.3094 7.0259
F 5.0361 3.5972 7.0259
Li 3.2135 3.8850 7.0259
F 1.3909 4.1728 7.0259
Li 12.6142 4.4605 7.0259
F 10.7916 4.7483 7.0259
Li 8.9690 5.0361 7.0259
F 7.1464 5.3239 7.0259
Li 5.3239 5.6116 7.0259
F 3.5013 5.8994 7.0259
Li 14.7246 6.1872 7.0259
F 12.9020 6.4750 7.0259
Li 11.0794 6.7627 7.0259
F 9.2568 7.0505 7.0259
Li 7.4342 7.3383 7.0259
F 5.6116 7.6261 7.0259
Li 3.7891 7.9139 7.0259
F 15.0123 8.2016 7.0259
Li 13.1898 8.4894 7.0259
F 11.3672 8.7772 7.0259
Li 9.5446 9.0650 7.0259
F 7.7220 9.3527 7.0259
Li 5.8994 9.6405 7.0259
Li 0.8154 0.1439 9.0346
F 12.0386 0.4317 9.0346
Li 10.2161 0.7194 9.0346
F 8.3935 1.0072 9.0346
Li 6.5709 1.2950 9.0346
F 4.7483 1.5828 9.0346
Li 2.9257 1.8705 9.0346
F 1.1031 2.1583 9.0346
Li 12.3264 2.4461 9.0346
F 10.5038 2.7339 9.0346
Li 8.6813 3.0217 9.0346
F 6.8587 3.3094 9.0346
Li 5.0361 3.5972 9.0346
F 3.2135 3.8850 9.0346
Li 1.3909 4.1728 9.0346
F 12.6142 4.4605 9.0346
Li 10.7916 4.7483 9.0346
F 8.9690 5.0361 9.0346
Li 7.1464 5.3239 9.0346
F 5.3239 5.6116 9.0346
Li 3.5013 5.8994 9.0346
F 14.7246 6.1872 9.0346
Li 12.9020 6.4750 9.0346
F 11.0794 6.7627 9.0346
Li 9.2568 7.0505 9.0346
F 7.4342 7.3383 9.0346
Li 5.6116 7.6261 9.0346
F 3.7891 7.9139 9.0346
Li 15.0123 8.2016 9.0346
F 13.1898 8.4894 9.0346
Li 11.3672 8.7772 9.0346
F 9.5446 9.0650 9.0346
Li 7.7220 9.3527 9.0346
F 5.8994 9.6405 9.0346
F 0.8154 0.1439 11.0432
Li 12.0386 0.4317 11.0432
F 10.2161 0.7194 11.0432
Li 8.3935 1.0072 11.0432
F 6.5709 1.2950 11.0432
Li 4.7483 1.5828 11.0432
F 2.9257 1.8705 11.0432
Li 1.1031 2.1583 11.0432
F 12.3264 2.4461 11.0432
Li 10.5038 2.7339 11.0432
F 8.6813 3.0217 11.0432
Li 6.8587 3.3094 11.0432
F 5.0361 3.5972 11.0432
Li 3.2135 3.8850 11.0432
F 1.3909 4.1728 11.0432
Li 12.6142 4.4605 11.0432
F 10.7916 4.7483 11.0432
Li 8.9690 5.0361 11.0432
F 7.1464 5.3239 11.0432
Li 5.3239 5.6116 11.0432
F 3.5013 5.8994 11.0432
Li 14.7246 6.1872 11.0432
F 12.9020 6.4750 11.0432
Li 11.0794 6.7627 11.0432
F 9.2568 7.0505 11.0432
Li 7.4342 7.3383 11.0432
F 5.6116 7.6261 11.0432
Li 3.7891 7.9139 11.0432
F 15.0123 8.2016 11.0432
Li 13.1898 8.4894 11.0432
F 11.3672 8.7772 11.0432
Li 9.5446 9.0650 11.0432
F 7.7220 9.3527 11.0432
Li 5.8994 9.6405 11.0432
Li 0.8154 0.1439 13.0519
F 12.0386 0.4317 13.0519
Li 10.2161 0.7194 13.0519
F 8.3935 1.0072 13.0519
Li 6.5709 1.2950 13.0519
F 4.7483 1.5828 13.0519
Li 2.9257 1.8705 13.0519
F 1.1031 2.1583 13.0519
Li 12.3264 2.4461 13.0519
F 10.5038 2.7339 13.0519
Li 8.6813 3.0217 13.0519
F 6.8587 3.3094 13.0519
Li 5.0361 3.5972 13.0519
F 3.2135 3.8850 13.0519
Li 1.3909 4.1728 13.0519
F 12.6142 4.4605 13.0519
Li 10.7916 4.7483 13.0519
F 8.9690 5.0361 13.0519
Li 7.1464 5.3239 13.0519
F 5.3239 5.6116 13.0519
Li 3.5013 5.8994 13.0519
F 14.7246 6.1872 13.0519
Li 12.9020 6.4750 13.0519
F 11.0794 6.7627 13.0519
Li 9.2568 7.0505 13.0519
F 7.4342 7.3383 13.0519
Li 5.6116 7.6261 13.0519
F 3.7891 7.9139 13.0519
Li 15.0123 8.2016 13.0519
F 13.1898 8.4894 13.0519
Li 11.3672 8.7772 13.0519
F 9.5446 9.0650 13.0519
Li 7.7220 9.3527 13.0519
F 5.8994 9.6405 13.0519
O 2.4461 0.1439 14.6404
O 5.7076 0.1439 14.6404
O 8.9690 0.1439 14.6404
O 12.2305 0.1439 14.6404
O 2.4461 3.4054 14.6404
O 5.7076 3.4054 14.6404
O 8.9690 3.4054 14.6404
O 12.2305 3.4054 14.6404
O 5.7076 6.6668 14.6404
O 8.9690 6.6668 14.6404
O 12.2305 6.6668 14.6404
O 2.4461 6.6668 14.6404
Li 0.8154 0.1439 15.7935
Li 4.0768 0.1439 15.7935
Li 7.3383 0.1439 15.7935
Li 10.5998 0.1439 15.7935
Li 2.4461 1.7746 15.7935
Li 5.7076 1.7746 15.7935
Li 8.9690 1.7746 15.7935
Li 12.2305 1.7746 15.7935
Li 4.0768 3.4054 15.7935
Li 7.3383 3.4054 15.7935
Li 10.5998 3.4054 15.7935
Li 13.8612 3.4054 15.7935
Li 2.4461 5.0361 15.7935
Li 5.7076 5.0361 15.7935
Li 8.9690 5.0361 15.7935
Li 12.2305 5.0361 15.7935
Li 4.0768 6.6668 15.7935
Li 7.3383 6.6668 15.7935
Li 10.5998 6.6668 15.7935
Li 13.8612 6.6668 15.7935
Li 5.7076 8.2976 15.7935
Li 8.9690 8.2976 15.7935
Li 12.2305 8.2976 15.7935
Li 15.4920 8.2976 15.7935
O 4.0768 1.7746 16.9466
O 7.3383 1.7746 16.9466
O 10.5998 1.7746 16.9466
O 0.8154 1.7746 16.9466
O 4.0768 5.0361 16.9466
O 7.3383 5.0361 16.9466
O 10.5998 5.0361 16.9466
O 13.8612 5.0361 16.9466
O 4.0768 8.2976 16.9466
O 7.3383 8.2976 16.9466
O 10.5998 8.2976 16.9466
O 13.8612 8.2976 16.9466
Li 0.8154 0.1439 18.0997
Li 4.0768 0.1439 18.0997
Li 7.3383 0.1439 18.0997
Li 10.5998 0.1439 18.0997
Li 2.4461 1.7746 18.0997
Li 5.7076 1.7746 18.0997
Li 8.9690 1.7746 18.0997
Li 12.2305 1.7746 18.0997
Li 4.0768 3.4054 18.0997
Li 7.3383 3.4054 18.0997
Li 10.5998 3.4054 18.0997
Li 13.8612 3.4054 18.0997
Li 2.4461 5.0361 18.0997
Li 5.7076 5.0361 18.0997
Li 8.9690 5.0361 18.0997
Li 12.2305 5.0361 18.0997
Li 4.0768 6.6668 18.0997
Li 7.3383 6.6668 18.0997
Li 10.5998 6.6668 18.0997
Li 13.8612 6.6668 18.0997
Li 5.7076 8.2976 18.0997
Li 8.9690 8.2976 18.0997
Li 12.2305 8.2976 18.0997
Li 15.4920 8.2976 18.0997
O 2.4461 0.1439 19.2528
O 5.7076 0.1439 19.2528
O 8.9690 0.1439 19.2528
O 12.2305 0.1439 19.2528
O 2.4461 3.4054 19.2528
O 5.7076 3.4054 19.2528
O 8.9690 3.4054 19.2528
O 12.2305 3.4054 19.2528
O 5.7076 6.6668 19.2528
O 8.9690 6.6668 19.2528
O 12.2305 6.6668 19.2528
O 2.4461 6.6668 19.2528
Li 0.8154 0.1439 20.4059
Li 4.0768 0.1439 20.4059
Li 7.3383 0.1439 20.4059
Li 10.5998 0.1439 20.4059
Li 2.4461 1.7746 20.4059
Li 5.7076 1.7746 20.4059
Li 8.9690 1.7746 20.4059
Li 12.2305 1.7746 20.4059
Li 4.0768 3.4054 20.4059
Li 7.3383 3.4054 20.4059
Li 10.5998 3.4054 20.4059
Li 13.8612 3.4054 20.4059
Li 2.4461 5.0361 20.4059
Li 5.7076 5.0361 20.4059
Li 8.9690 5.0361 20.4059
Li 12.2305 5.0361 20.4059
Li 4.0768 6.6668 20.4059
Li 7.3383 6.6668 20.4059
Li 10.5998 6.6668 20.4059
Li 13.8612 6.6668 20.4059
Li 5.7076 8.2976 20.4059
Li 8.9690 8.2976 20.4059
Li 12.2305 8.2976 20.4059
Li 15.4920 8.2976 20.4059
O 4.0768 1.7746 21.5590
O 7.3383 1.7746 21.5590
O 10.5998 1.7746 21.5590
O 0.8154 1.7746 21.5590
O 4.0768 5.0361 21.5590
O 7.3383 5.0361 21.5590
O 10.5998 5.0361 21.5590
O 13.8612 5.0361 21.5590
O 4.0768 8.2976 21.5590
O 7.3383 8.2976 21.5590
O 10.5998 8.2976 21.5590
O 13.8612 8.2976 21.5590
Li 0.8154 0.1439 22.7121
Li 4.0768 0.1439 22.7121
Li 7.3383 0.1439 22.7121
Li 10.5998 0.1439 22.7121
Li 2.4461 1.7746 22.7121
Li 5.7076 1.7746 22.7121
Li 8.9690 1.7746 22.7121
Li 12.2305 1.7746 22.7121
Li 4.0768 3.4054 22.7121
Li 7.3383 3.4054 22.7121
Li 10.5998 3.4054 22.7121
Li 13.8612 3.4054 22.7121
Li 2.4461 5.0361 22.7121
Li 5.7076 5.0361 22.7121
Li 8.9690 5.0361 22.7121
Li 12.2305 5.0361 22.7121
Li 4.0768 6.6668 22.7121
Li 7.3383 6.6668 22.7121
Li 10.5998 6.6668 22.7121
Li 13.8612 6.6668 22.7121
Li 5.7076 8.2976 22.7121
Li 8.9690 8.2976 22.7121
Li 12.2305 8.2976 22.7121
Li 15.4920 8.2976 22.7121
O 2.4461 0.1439 23.8652
O 5.7076 0.1439 23.8652
O 8.9690 0.1439 23.8652
O 12.2305 0.1439 23.8652
O 2.4461 3.4054 23.8652
O 5.7076 3.4054 23.8652
O 8.9690 3.4054 23.8652
O 12.2305 3.4054 23.8652
O 5.7076 6.6668 23.8652
O 8.9690 6.6668 23.8652
O 12.2305 6.6668 23.8652
O 2.4461 6.6668 23.8652
Li 0.8154 0.1439 25.0183
Li 4.0768 0.1439 25.0183
Li 7.3383 0.1439 25.0183
Li 10.5998 0.1439 25.0183
Li 2.4461 1.7746 25.0183
Li 5.7076 1.7746 25.0183
Li 8.9690 1.7746 25.0183
Li 12.2305 1.7746 25.0183
Li 4.0768 3.4054 25.0183
Li 7.3383 3.4054 25.0183
Li 10.5998 3.4054 25.0183
Li 13.8612 3.4054 25.0183
Li 2.4461 5.0361 25.0183
Li 5.7076 5.0361 25.0183
Li 8.9690 5.0361 25.0183
Li 12.2305 5.0361 25.0183
Li 4.0768 6.6668 25.0183
Li 7.3383 6.6668 25.0183
Li 10.5998 6.6668 25.0183
Li 13.8612 6.6668 25.0183
Li 5.7076 8.2976 25.0183
Li 8.9690 8.2976 25.0183
Li 12.2305 8.2976 25.0183
Li 15.4920 8.2976 25.0183
O 4.0768 1.7746 26.1714
O 7.3383 1.7746 26.1714
O 10.5998 1.7746 26.1714
O 0.8154 1.7746 26.1714
O 4.0768 5.0361 26.1714
O 7.3383 5.0361 26.1714
O 10.5998 5.0361 26.1714
O 13.8612 5.0361 26.1714
O 4.0768 8.2976 26.1714
O 7.3383 8.2976 26.1714
O 10.5998 8.2976 26.1714
O 13.8612 8.2976 26.1714
