326
XYZ file generated by QuantumATK for match 53
Li 0.1882 0.1882 1.0000
F 8.0909 0.5645 1.0000
Li 6.2093 0.9408 1.0000
F 4.3277 1.3171 1.0000
Li 2.4461 1.6935 1.0000
F 0.5645 2.0698 1.0000
Li 8.4673 2.4461 1.0000
F 6.5857 2.8224 1.0000
Li 4.7040 3.1987 1.0000
F 2.8224 3.5751 1.0000
Li 0.9408 3.9514 1.0000
F 8.8436 4.3277 1.0000
Li 6.9620 4.7040 1.0000
F 5.0804 5.0804 1.0000
Li 3.1987 5.4567 1.0000
F 1.3171 5.8330 1.0000
Li 9.2199 6.2093 1.0000
F 7.3383 6.5857 1.0000
Li 5.4567 6.9620 1.0000
F 3.5751 7.3383 1.0000
Li 1.6935 7.7146 1.0000
F 9.5962 8.0909 1.0000
Li 7.7146 8.4673 1.0000
F 5.8330 8.8436 1.0000
Li 3.9514 9.2199 1.0000
F 2.0698 9.5962 1.0000
F 0.1882 0.1882 3.0086
Li 8.0909 0.5645 3.0086
F 6.2093 0.9408 3.0086
Li 4.3277 1.3171 3.0086
F 2.4461 1.6935 3.0086
Li 0.5645 2.0698 3.0086
F 8.4673 2.4461 3.0086
Li 6.5857 2.8224 3.0086
F 4.7040 3.1987 3.0086
Li 2.8224 3.5751 3.0086
F 0.9408 3.9514 3.0086
Li 8.8436 4.3277 3.0086
F 6.9620 4.7040 3.0086
Li 5.0804 5.0804 3.0086
F 3.1987 5.4567 3.0086
Li 1.3171 5.8330 3.0086
F 9.2199 6.2093 3.0086
Li 7.3383 6.5857 3.0086
F 5.4567 6.9620 3.0086
Li 3.5751 7.3383 3.0086
F 1.6935 7.7146 3.0086
Li 9.5962 8.0909 3.0086
F 7.7146 8.4673 3.0086
Li 5.8330 8.8436 3.0086
F 3.9514 9.2199 3.0086
Li 2.0698 9.5962 3.0086
Li 0.1882 0.1882 5.0173
F 8.0909 0.5645 5.0173
Li 6.2093 0.9408 5.0173
F 4.3277 1.3171 5.0173
Li 2.4461 1.6935 5.0173
F 0.5645 2.0698 5.0173
Li 8.4673 2.4461 5.0173
F 6.5857 2.8224 5.0173
Li 4.7040 3.1987 5.0173
F 2.8224 3.5751 5.0173
Li 0.9408 3.9514 5.0173
F 8.8436 4.3277 5.0173
Li 6.9620 4.7040 5.0173
F 5.0804 5.0804 5.0173
Li 3.1987 5.4567 5.0173
F 1.3171 5.8330 5.0173
Li 9.2199 6.2093 5.0173
F 7.3383 6.5857 5.0173
Li 5.4567 6.9620 5.0173
F 3.5751 7.3383 5.0173
Li 1.6935 7.7146 5.0173
F 9.5962 8.0909 5.0173
Li 7.7146 8.4673 5.0173
F 5.8330 8.8436 5.0173
Li 3.9514 9.2199 5.0173
F 2.0698 9.5962 5.0173
F 0.1882 0.1882 7.0260
Li 8.0909 0.5645 7.0260
F 6.2093 0.9408 7.0260
Li 4.3277 1.3171 7.0260
F 2.4461 1.6935 7.0260
Li 0.5645 2.0698 7.0260
F 8.4673 2.4461 7.0260
Li 6.5857 2.8224 7.0260
F 4.7040 3.1987 7.0260
Li 2.8224 3.5751 7.0260
F 0.9408 3.9514 7.0260
Li 8.8436 4.3277 7.0260
F 6.9620 4.7040 7.0260
Li 5.0804 5.0804 7.0260
F 3.1987 5.4567 7.0260
Li 1.3171 5.8330 7.0260
F 9.2199 6.2093 7.0260
Li 7.3383 6.5857 7.0260
F 5.4567 6.9620 7.0260
Li 3.5751 7.3383 7.0260
F 1.6935 7.7146 7.0260
Li 9.5962 8.0909 7.0260
F 7.7146 8.4673 7.0260
Li 5.8330 8.8436 7.0260
F 3.9514 9.2199 7.0260
Li 2.0698 9.5962 7.0260
Li 0.1882 0.1882 9.0346
F 8.0909 0.5645 9.0346
Li 6.2093 0.9408 9.0346
F 4.3277 1.3171 9.0346
Li 2.4461 1.6935 9.0346
F 0.5645 2.0698 9.0346
Li 8.4673 2.4461 9.0346
F 6.5857 2.8224 9.0346
Li 4.7040 3.1987 9.0346
F 2.8224 3.5751 9.0346
Li 0.9408 3.9514 9.0346
F 8.8436 4.3277 9.0346
Li 6.9620 4.7040 9.0346
F 5.0804 5.0804 9.0346
Li 3.1987 5.4567 9.0346
F 1.3171 5.8330 9.0346
Li 9.2199 6.2093 9.0346
F 7.3383 6.5857 9.0346
Li 5.4567 6.9620 9.0346
F 3.5751 7.3383 9.0346
Li 1.6935 7.7146 9.0346
F 9.5962 8.0909 9.0346
Li 7.7146 8.4673 9.0346
F 5.8330 8.8436 9.0346
Li 3.9514 9.2199 9.0346
F 2.0698 9.5962 9.0346
F 0.1882 0.1882 11.0433
Li 8.0909 0.5645 11.0433
F 6.2093 0.9408 11.0433
Li 4.3277 1.3171 11.0433
F 2.4461 1.6935 11.0433
Li 0.5645 2.0698 11.0433
F 8.4673 2.4461 11.0433
Li 6.5857 2.8224 11.0433
F 4.7040 3.1987 11.0433
Li 2.8224 3.5751 11.0433
F 0.9408 3.9514 11.0433
Li 8.8436 4.3277 11.0433
F 6.9620 4.7040 11.0433
Li 5.0804 5.0804 11.0433
F 3.1987 5.4567 11.0433
Li 1.3171 5.8330 11.0433
F 9.2199 6.2093 11.0433
Li 7.3383 6.5857 11.0433
F 5.4567 6.9620 11.0433
Li 3.5751 7.3383 11.0433
F 1.6935 7.7146 11.0433
Li 9.5962 8.0909 11.0433
F 7.7146 8.4673 11.0433
Li 5.8330 8.8436 11.0433
F 3.9514 9.2199 11.0433
Li 2.0698 9.5962 11.0433
Li 0.1882 0.1882 13.0519
F 8.0909 0.5645 13.0519
Li 6.2093 0.9408 13.0519
F 4.3277 1.3171 13.0519
Li 2.4461 1.6935 13.0519
F 0.5645 2.0698 13.0519
Li 8.4673 2.4461 13.0519
F 6.5857 2.8224 13.0519
Li 4.7040 3.1987 13.0519
F 2.8224 3.5751 13.0519
Li 0.9408 3.9514 13.0519
F 8.8436 4.3277 13.0519
Li 6.9620 4.7040 13.0519
F 5.0804 5.0804 13.0519
Li 3.1987 5.4567 13.0519
F 1.3171 5.8330 13.0519
Li 9.2199 6.2093 13.0519
F 7.3383 6.5857 13.0519
Li 5.4567 6.9620 13.0519
F 3.5751 7.3383 13.0519
Li 1.6935 7.7146 13.0519
F 9.5962 8.0909 13.0519
Li 7.7146 8.4673 13.0519
F 5.8330 8.8436 13.0519
Li 3.9514 9.2199 13.0519
F 2.0698 9.5962 13.0519
O 1.8189 0.1882 14.6452
O 5.0804 0.1882 14.6452
O 8.3418 0.1882 14.6452
O 1.8189 3.4496 14.6452
O 5.0804 3.4496 14.6452
O 8.3418 3.4496 14.6452
O 1.8189 6.7111 14.6452
O 5.0804 6.7111 14.6452
O 8.3418 6.7111 14.6452
Li 0.1882 0.1882 15.7983
Li 3.4496 0.1882 15.7983
Li 6.7111 0.1882 15.7983
Li 1.8189 1.8189 15.7983
Li 5.0804 1.8189 15.7983
Li 8.3418 1.8189 15.7983
Li 0.1882 3.4496 15.7983
Li 3.4496 3.4496 15.7983
Li 6.7111 3.4496 15.7983
Li 1.8189 5.0804 15.7983
Li 5.0804 5.0804 15.7983
Li 8.3418 5.0804 15.7983
Li 0.1882 6.7111 15.7983
Li 3.4496 6.7111 15.7983
Li 6.7111 6.7111 15.7983
Li 1.8189 8.3418 15.7983
Li 5.0804 8.3418 15.7983
Li 8.3418 8.3418 15.7983
O 0.1882 1.8189 16.9514
O 3.4496 1.8189 16.9514
O 6.7111 1.8189 16.9514
O 0.1882 5.0804 16.9514
O 3.4496 5.0804 16.9514
O 6.7111 5.0804 16.9514
O 0.1882 8.3418 16.9514
O 3.4496 8.3418 16.9514
O 6.7111 8.3418 16.9514
Li 0.1882 0.1882 18.1045
Li 3.4496 0.1882 18.1045
Li 6.7111 0.1882 18.1045
Li 1.8189 1.8189 18.1045
Li 5.0804 1.8189 18.1045
Li 8.3418 1.8189 18.1045
Li 0.1882 3.4496 18.1045
Li 3.4496 3.4496 18.1045
Li 6.7111 3.4496 18.1045
Li 1.8189 5.0804 18.1045
Li 5.0804 5.0804 18.1045
Li 8.3418 5.0804 18.1045
Li 0.1882 6.7111 18.1045
Li 3.4496 6.7111 18.1045
Li 6.7111 6.7111 18.1045
Li 1.8189 8.3418 18.1045
Li 5.0804 8.3418 18.1045
Li 8.3418 8.3418 18.1045
O 1.8189 0.1882 19.2576
O 5.0804 0.1882 19.2576
O 8.3418 0.1882 19.2576
O 1.8189 3.4496 19.2576
O 5.0804 3.4496 19.2576
O 8.3418 3.4496 19.2576
O 1.8189 6.7111 19.2576
O 5.0804 6.7111 19.2576
O 8.3418 6.7111 19.2576
Li 0.1882 0.1882 20.4107
Li 3.4496 0.1882 20.4107
Li 6.7111 0.1882 20.4107
Li 1.8189 1.8189 20.4107
Li 5.0804 1.8189 20.4107
Li 8.3418 1.8189 20.4107
Li 0.1882 3.4496 20.4107
Li 3.4496 3.4496 20.4107
Li 6.7111 3.4496 20.4107
Li 1.8189 5.0804 20.4107
Li 5.0804 5.0804 20.4107
Li 8.3418 5.0804 20.4107
Li 0.1882 6.7111 20.4107
Li 3.4496 6.7111 20.4107
Li 6.7111 6.7111 20.4107
Li 1.8189 8.3418 20.4107
Li 5.0804 8.3418 20.4107
Li 8.3418 8.3418 20.4107
O 0.1882 1.8189 21.5638
O 3.4496 1.8189 21.5638
O 6.7111 1.8189 21.5638
O 0.1882 5.0804 21.5638
O 3.4496 5.0804 21.5638
O 6.7111 5.0804 21.5638
O 0.1882 8.3418 21.5638
O 3.4496 8.3418 21.5638
O 6.7111 8.3418 21.5638
Li 0.1882 0.1882 22.7169
Li 3.4496 0.1882 22.7169
Li 6.7111 0.1882 22.7169
Li 1.8189 1.8189 22.7169
Li 5.0804 1.8189 22.7169
Li 8.3418 1.8189 22.7169
Li 0.1882 3.4496 22.7169
Li 3.4496 3.4496 22.7169
Li 6.7111 3.4496 22.7169
Li 1.8189 5.0804 22.7169
Li 5.0804 5.0804 22.7169
Li 8.3418 5.0804 22.7169
Li 0.1882 6.7111 22.7169
Li 3.4496 6.7111 22.7169
Li 6.7111 6.7111 22.7169
Li 1.8189 8.3418 22.7169
Li 5.0804 8.3418 22.7169
Li 8.3418 8.3418 22.7169
O 1.8189 0.1882 23.8700
O 5.0804 0.1882 23.8700
O 8.3418 0.1882 23.8700
O 1.8189 3.4496 23.8700
O 5.0804 3.4496 23.8700
O 8.3418 3.4496 23.8700
O 1.8189 6.7111 23.8700
O 5.0804 6.7111 23.8700
O 8.3418 6.7111 23.8700
Li 0.1882 0.1882 25.0231
Li 3.4496 0.1882 25.0231
Li 6.7111 0.1882 25.0231
Li 1.8189 1.8189 25.0231
Li 5.0804 1.8189 25.0231
Li 8.3418 1.8189 25.0231
Li 0.1882 3.4496 25.0231
Li 3.4496 3.4496 25.0231
Li 6.7111 3.4496 25.0231
Li 1.8189 5.0804 25.0231
Li 5.0804 5.0804 25.0231
Li 8.3418 5.0804 25.0231
Li 0.1882 6.7111 25.0231
Li 3.4496 6.7111 25.0231
Li 6.7111 6.7111 25.0231
Li 1.8189 8.3418 25.0231
Li 5.0804 8.3418 25.0231
Li 8.3418 8.3418 25.0231
O 0.1882 1.8189 26.1762
O 3.4496 1.8189 26.1762
O 6.7111 1.8189 26.1762
O 0.1882 5.0804 26.1762
O 3.4496 5.0804 26.1762
O 6.7111 5.0804 26.1762
O 0.1882 8.3418 26.1762
O 3.4496 8.3418 26.1762
O 6.7111 8.3418 26.1762
