476
XYZ file generated by QuantumATK for match 44
Li 0.8154 0.3171 1.0000
F 5.3452 0.9513 1.0000
Li 3.3521 1.5854 1.0000
F 1.3589 2.2196 1.0000
Li 5.8888 2.8538 1.0000
F 3.8956 3.4880 1.0000
Li 1.9025 4.1221 1.0000
F 6.4323 4.7563 1.0000
Li 4.4392 5.3905 1.0000
F 2.4461 6.0247 1.0000
Li 6.9759 6.6588 1.0000
F 4.9828 7.2930 1.0000
Li 2.9897 7.9272 1.0000
F 7.5195 8.5613 1.0000
Li 5.5264 9.1955 1.0000
F 3.5333 9.8297 1.0000
Li 8.0631 10.4639 1.0000
F 6.0700 11.0980 1.0000
Li 4.0768 11.7322 1.0000
F 8.6066 12.3664 1.0000
Li 6.6135 13.0006 1.0000
F 4.6204 13.6347 1.0000
Li 9.1502 14.2689 1.0000
F 7.1571 14.9031 1.0000
Li 5.1640 15.5373 1.0000
F 9.6938 16.1714 1.0000
Li 7.7007 16.8056 1.0000
F 5.7076 17.4398 1.0000
Li 10.2374 18.0740 1.0000
F 8.2443 18.7081 1.0000
Li 6.2511 19.3423 1.0000
F 10.7810 19.9765 1.0000
Li 8.7878 20.6107 1.0000
F 6.7947 21.2448 1.0000
Li 11.3245 21.8790 1.0000
F 9.3314 22.5132 1.0000
F 0.8154 0.3171 3.0086
Li 5.3452 0.9513 3.0086
F 3.3521 1.5854 3.0086
Li 1.3589 2.2196 3.0086
F 5.8888 2.8538 3.0086
Li 3.8956 3.4880 3.0086
F 1.9025 4.1221 3.0086
Li 6.4323 4.7563 3.0086
F 4.4392 5.3905 3.0086
Li 2.4461 6.0247 3.0086
F 6.9759 6.6588 3.0086
Li 4.9828 7.2930 3.0086
F 2.9897 7.9272 3.0086
Li 7.5195 8.5613 3.0086
F 5.5264 9.1955 3.0086
Li 3.5333 9.8297 3.0086
F 8.0631 10.4639 3.0086
Li 6.0700 11.0980 3.0086
F 4.0768 11.7322 3.0086
Li 8.6066 12.3664 3.0086
F 6.6135 13.0006 3.0086
Li 4.6204 13.6347 3.0086
F 9.1502 14.2689 3.0086
Li 7.1571 14.9031 3.0086
F 5.1640 15.5373 3.0086
Li 9.6938 16.1714 3.0086
F 7.7007 16.8056 3.0086
Li 5.7076 17.4398 3.0086
F 10.2374 18.0740 3.0086
Li 8.2443 18.7081 3.0086
F 6.2511 19.3423 3.0086
Li 10.7810 19.9765 3.0086
F 8.7878 20.6107 3.0086
Li 6.7947 21.2448 3.0086
F 11.3245 21.8790 3.0086
Li 9.3314 22.5132 3.0086
Li 0.8154 0.3171 5.0173
F 5.3452 0.9513 5.0173
Li 3.3521 1.5854 5.0173
F 1.3589 2.2196 5.0173
Li 5.8888 2.8538 5.0173
F 3.8956 3.4880 5.0173
Li 1.9025 4.1221 5.0173
F 6.4323 4.7563 5.0173
Li 4.4392 5.3905 5.0173
F 2.4461 6.0247 5.0173
Li 6.9759 6.6588 5.0173
F 4.9828 7.2930 5.0173
Li 2.9897 7.9272 5.0173
F 7.5195 8.5613 5.0173
Li 5.5264 9.1955 5.0173
F 3.5333 9.8297 5.0173
Li 8.0631 10.4639 5.0173
F 6.0700 11.0980 5.0173
Li 4.0768 11.7322 5.0173
F 8.6066 12.3664 5.0173
Li 6.6135 13.0006 5.0173
F 4.6204 13.6347 5.0173
Li 9.1502 14.2689 5.0173
F 7.1571 14.9031 5.0173
Li 5.1640 15.5373 5.0173
F 9.6938 16.1714 5.0173
Li 7.7007 16.8056 5.0173
F 5.7076 17.4398 5.0173
Li 10.2374 18.0740 5.0173
F 8.2443 18.7081 5.0173
Li 6.2511 19.3423 5.0173
F 10.7810 19.9765 5.0173
Li 8.7878 20.6107 5.0173
F 6.7947 21.2448 5.0173
Li 11.3245 21.8790 5.0173
F 9.3314 22.5132 5.0173
F 0.8154 0.3171 7.0259
Li 5.3452 0.9513 7.0259
F 3.3521 1.5854 7.0259
Li 1.3589 2.2196 7.0259
F 5.8888 2.8538 7.0259
Li 3.8956 3.4880 7.0259
F 1.9025 4.1221 7.0259
Li 6.4323 4.7563 7.0259
F 4.4392 5.3905 7.0259
Li 2.4461 6.0247 7.0259
F 6.9759 6.6588 7.0259
Li 4.9828 7.2930 7.0259
F 2.9897 7.9272 7.0259
Li 7.5195 8.5613 7.0259
F 5.5264 9.1955 7.0259
Li 3.5333 9.8297 7.0259
F 8.0631 10.4639 7.0259
Li 6.0700 11.0980 7.0259
F 4.0768 11.7322 7.0259
Li 8.6066 12.3664 7.0259
F 6.6135 13.0006 7.0259
Li 4.6204 13.6347 7.0259
F 9.1502 14.2689 7.0259
Li 7.1571 14.9031 7.0259
F 5.1640 15.5373 7.0259
Li 9.6938 16.1714 7.0259
F 7.7007 16.8056 7.0259
Li 5.7076 17.4398 7.0259
F 10.2374 18.0740 7.0259
Li 8.2443 18.7081 7.0259
F 6.2511 19.3423 7.0259
Li 10.7810 19.9765 7.0259
F 8.7878 20.6107 7.0259
Li 6.7947 21.2448 7.0259
F 11.3245 21.8790 7.0259
Li 9.3314 22.5132 7.0259
Li 0.8154 0.3171 9.0346
F 5.3452 0.9513 9.0346
Li 3.3521 1.5854 9.0346
F 1.3589 2.2196 9.0346
Li 5.8888 2.8538 9.0346
F 3.8956 3.4880 9.0346
Li 1.9025 4.1221 9.0346
F 6.4323 4.7563 9.0346
Li 4.4392 5.3905 9.0346
F 2.4461 6.0247 9.0346
Li 6.9759 6.6588 9.0346
F 4.9828 7.2930 9.0346
Li 2.9897 7.9272 9.0346
F 7.5195 8.5613 9.0346
Li 5.5264 9.1955 9.0346
F 3.5333 9.8297 9.0346
Li 8.0631 10.4639 9.0346
F 6.0700 11.0980 9.0346
Li 4.0768 11.7322 9.0346
F 8.6066 12.3664 9.0346
Li 6.6135 13.0006 9.0346
F 4.6204 13.6347 9.0346
Li 9.1502 14.2689 9.0346
F 7.1571 14.9031 9.0346
Li 5.1640 15.5373 9.0346
F 9.6938 16.1714 9.0346
Li 7.7007 16.8056 9.0346
F 5.7076 17.4398 9.0346
Li 10.2374 18.0740 9.0346
F 8.2443 18.7081 9.0346
Li 6.2511 19.3423 9.0346
F 10.7810 19.9765 9.0346
Li 8.7878 20.6107 9.0346
F 6.7947 21.2448 9.0346
Li 11.3245 21.8790 9.0346
F 9.3314 22.5132 9.0346
F 0.8154 0.3171 11.0433
Li 5.3452 0.9513 11.0433
F 3.3521 1.5854 11.0433
Li 1.3589 2.2196 11.0433
F 5.8888 2.8538 11.0433
Li 3.8956 3.4880 11.0433
F 1.9025 4.1221 11.0433
Li 6.4323 4.7563 11.0433
F 4.4392 5.3905 11.0433
Li 2.4461 6.0247 11.0433
F 6.9759 6.6588 11.0433
Li 4.9828 7.2930 11.0433
F 2.9897 7.9272 11.0433
Li 7.5195 8.5613 11.0433
F 5.5264 9.1955 11.0433
Li 3.5333 9.8297 11.0433
F 8.0631 10.4639 11.0433
Li 6.0700 11.0980 11.0433
F 4.0768 11.7322 11.0433
Li 8.6066 12.3664 11.0433
F 6.6135 13.0006 11.0433
Li 4.6204 13.6347 11.0433
F 9.1502 14.2689 11.0433
Li 7.1571 14.9031 11.0433
F 5.1640 15.5373 11.0433
Li 9.6938 16.1714 11.0433
F 7.7007 16.8056 11.0433
Li 5.7076 17.4398 11.0433
F 10.2374 18.0740 11.0433
Li 8.2443 18.7081 11.0433
F 6.2511 19.3423 11.0433
Li 10.7810 19.9765 11.0433
F 8.7878 20.6107 11.0433
Li 6.7947 21.2448 11.0433
F 11.3245 21.8790 11.0433
Li 9.3314 22.5132 11.0433
Li 0.8154 0.3171 13.0519
F 5.3452 0.9513 13.0519
Li 3.3521 1.5854 13.0519
F 1.3589 2.2196 13.0519
Li 5.8888 2.8538 13.0519
F 3.8956 3.4880 13.0519
Li 1.9025 4.1221 13.0519
F 6.4323 4.7563 13.0519
Li 4.4392 5.3905 13.0519
F 2.4461 6.0247 13.0519
Li 6.9759 6.6588 13.0519
F 4.9828 7.2930 13.0519
Li 2.9897 7.9272 13.0519
F 7.5195 8.5613 13.0519
Li 5.5264 9.1955 13.0519
F 3.5333 9.8297 13.0519
Li 8.0631 10.4639 13.0519
F 6.0700 11.0980 13.0519
Li 4.0768 11.7322 13.0519
F 8.6066 12.3664 13.0519
Li 6.6135 13.0006 13.0519
F 4.6204 13.6347 13.0519
Li 9.1502 14.2689 13.0519
F 7.1571 14.9031 13.0519
Li 5.1640 15.5373 13.0519
F 9.6938 16.1714 13.0519
Li 7.7007 16.8056 13.0519
F 5.7076 17.4398 13.0519
Li 10.2374 18.0740 13.0519
F 8.2443 18.7081 13.0519
Li 6.2511 19.3423 13.0519
F 10.7810 19.9765 13.0519
Li 8.7878 20.6107 13.0519
F 6.7947 21.2448 13.0519
Li 11.3245 21.8790 13.0519
F 9.3314 22.5132 13.0519
O 2.4461 0.3171 14.5742
O 5.7076 0.3171 14.5742
O 2.4461 3.5786 14.5742
O 5.7076 3.5786 14.5742
O 5.7076 6.8400 14.5742
O 2.4461 6.8400 14.5742
O 5.7076 10.1015 14.5742
O 8.9690 10.1015 14.5742
O 5.7076 13.3630 14.5742
O 8.9690 13.3630 14.5742
O 5.7076 16.6244 14.5742
O 8.9690 16.6244 14.5742
O 8.9690 19.8859 14.5742
O 5.7076 19.8859 14.5742
Li 0.8154 0.3171 15.7273
Li 4.0768 0.3171 15.7273
Li 2.4461 1.9478 15.7273
Li 5.7076 1.9478 15.7273
Li 4.0768 3.5786 15.7273
Li 7.3383 3.5786 15.7273
Li 2.4461 5.2093 15.7273
Li 5.7076 5.2093 15.7273
Li 4.0768 6.8400 15.7273
Li 7.3383 6.8400 15.7273
Li 5.7076 8.4708 15.7273
Li 2.4461 8.4708 15.7273
Li 4.0768 10.1015 15.7273
Li 7.3383 10.1015 15.7273
Li 5.7076 11.7322 15.7273
Li 8.9690 11.7322 15.7273
Li 7.3383 13.3630 15.7273
Li 4.0768 13.3630 15.7273
Li 5.7076 14.9937 15.7273
Li 8.9690 14.9937 15.7273
Li 7.3383 16.6244 15.7273
Li 10.5998 16.6244 15.7273
Li 8.9690 18.2552 15.7273
Li 5.7076 18.2552 15.7273
Li 7.3383 19.8859 15.7273
Li 10.5998 19.8859 15.7273
Li 8.9690 21.5166 15.7273
Li 12.2305 21.5166 15.7273
O 4.0768 1.9478 16.8804
O 0.8154 1.9478 16.8804
O 4.0768 5.2093 16.8804
O 7.3383 5.2093 16.8804
O 4.0768 8.4708 16.8804
O 7.3383 8.4708 16.8804
O 4.0768 11.7322 16.8804
O 7.3383 11.7322 16.8804
O 7.3383 14.9937 16.8804
O 10.5998 14.9937 16.8804
O 7.3383 18.2552 16.8804
O 10.5998 18.2552 16.8804
O 7.3383 21.5166 16.8804
O 10.5998 21.5166 16.8804
Li 0.8154 0.3171 18.0335
Li 4.0768 0.3171 18.0335
Li 2.4461 1.9478 18.0335
Li 5.7076 1.9478 18.0335
Li 4.0768 3.5786 18.0335
Li 7.3383 3.5786 18.0335
Li 2.4461 5.2093 18.0335
Li 5.7076 5.2093 18.0335
Li 4.0768 6.8400 18.0335
Li 7.3383 6.8400 18.0335
Li 5.7076 8.4708 18.0335
Li 2.4461 8.4708 18.0335
Li 4.0768 10.1015 18.0335
Li 7.3383 10.1015 18.0335
Li 5.7076 11.7322 18.0335
Li 8.9690 11.7322 18.0335
Li 7.3383 13.3630 18.0335
Li 4.0768 13.3630 18.0335
Li 5.7076 14.9937 18.0335
Li 8.9690 14.9937 18.0335
Li 7.3383 16.6244 18.0335
Li 10.5998 16.6244 18.0335
Li 8.9690 18.2552 18.0335
Li 5.7076 18.2552 18.0335
Li 7.3383 19.8859 18.0335
Li 10.5998 19.8859 18.0335
Li 8.9690 21.5166 18.0335
Li 12.2305 21.5166 18.0335
O 2.4461 0.3171 19.1866
O 5.7076 0.3171 19.1866
O 2.4461 3.5786 19.1866
O 5.7076 3.5786 19.1866
O 5.7076 6.8400 19.1866
O 2.4461 6.8400 19.1866
O 5.7076 10.1015 19.1866
O 8.9690 10.1015 19.1866
O 5.7076 13.3630 19.1866
O 8.9690 13.3630 19.1866
O 5.7076 16.6244 19.1866
O 8.9690 16.6244 19.1866
O 8.9690 19.8859 19.1866
O 5.7076 19.8859 19.1866
Li 0.8154 0.3171 20.3397
Li 4.0768 0.3171 20.3397
Li 2.4461 1.9478 20.3397
Li 5.7076 1.9478 20.3397
Li 4.0768 3.5786 20.3397
Li 7.3383 3.5786 20.3397
Li 2.4461 5.2093 20.3397
Li 5.7076 5.2093 20.3397
Li 4.0768 6.8400 20.3397
Li 7.3383 6.8400 20.3397
Li 5.7076 8.4708 20.3397
Li 2.4461 8.4708 20.3397
Li 4.0768 10.1015 20.3397
Li 7.3383 10.1015 20.3397
Li 5.7076 11.7322 20.3397
Li 8.9690 11.7322 20.3397
Li 7.3383 13.3630 20.3397
Li 4.0768 13.3630 20.3397
Li 5.7076 14.9937 20.3397
Li 8.9690 14.9937 20.3397
Li 7.3383 16.6244 20.3397
Li 10.5998 16.6244 20.3397
Li 8.9690 18.2552 20.3397
Li 5.7076 18.2552 20.3397
Li 7.3383 19.8859 20.3397
Li 10.5998 19.8859 20.3397
Li 8.9690 21.5166 20.3397
Li 12.2305 21.5166 20.3397
O 4.0768 1.9478 21.4928
O 0.8154 1.9478 21.4928
O 4.0768 5.2093 21.4928
O 7.3383 5.2093 21.4928
O 4.0768 8.4708 21.4928
O 7.3383 8.4708 21.4928
O 4.0768 11.7322 21.4928
O 7.3383 11.7322 21.4928
O 7.3383 14.9937 21.4928
O 10.5998 14.9937 21.4928
O 7.3383 18.2552 21.4928
O 10.5998 18.2552 21.4928
O 7.3383 21.5166 21.4928
O 10.5998 21.5166 21.4928
Li 0.8154 0.3171 22.6459
Li 4.0768 0.3171 22.6459
Li 2.4461 1.9478 22.6459
Li 5.7076 1.9478 22.6459
Li 4.0768 3.5786 22.6459
Li 7.3383 3.5786 22.6459
Li 2.4461 5.2093 22.6459
Li 5.7076 5.2093 22.6459
Li 4.0768 6.8400 22.6459
Li 7.3383 6.8400 22.6459
Li 5.7076 8.4708 22.6459
Li 2.4461 8.4708 22.6459
Li 4.0768 10.1015 22.6459
Li 7.3383 10.1015 22.6459
Li 5.7076 11.7322 22.6459
Li 8.9690 11.7322 22.6459
Li 7.3383 13.3630 22.6459
Li 4.0768 13.3630 22.6459
Li 5.7076 14.9937 22.6459
Li 8.9690 14.9937 22.6459
Li 7.3383 16.6244 22.6459
Li 10.5998 16.6244 22.6459
Li 8.9690 18.2552 22.6459
Li 5.7076 18.2552 22.6459
Li 7.3383 19.8859 22.6459
Li 10.5998 19.8859 22.6459
Li 8.9690 21.5166 22.6459
Li 12.2305 21.5166 22.6459
O 2.4461 0.3171 23.7990
O 5.7076 0.3171 23.7990
O 2.4461 3.5786 23.7990
O 5.7076 3.5786 23.7990
O 5.7076 6.8400 23.7990
O 2.4461 6.8400 23.7990
O 5.7076 10.1015 23.7990
O 8.9690 10.1015 23.7990
O 5.7076 13.3630 23.7990
O 8.9690 13.3630 23.7990
O 5.7076 16.6244 23.7990
O 8.9690 16.6244 23.7990
O 8.9690 19.8859 23.7990
O 5.7076 19.8859 23.7990
Li 0.8154 0.3171 24.9521
Li 4.0768 0.3171 24.9521
Li 2.4461 1.9478 24.9521
Li 5.7076 1.9478 24.9521
Li 4.0768 3.5786 24.9521
Li 7.3383 3.5786 24.9521
Li 2.4461 5.2093 24.9521
Li 5.7076 5.2093 24.9521
Li 4.0768 6.8400 24.9521
Li 7.3383 6.8400 24.9521
Li 5.7076 8.4708 24.9521
Li 2.4461 8.4708 24.9521
Li 4.0768 10.1015 24.9521
Li 7.3383 10.1015 24.9521
Li 5.7076 11.7322 24.9521
Li 8.9690 11.7322 24.9521
Li 7.3383 13.3630 24.9521
Li 4.0768 13.3630 24.9521
Li 5.7076 14.9937 24.9521
Li 8.9690 14.9937 24.9521
Li 7.3383 16.6244 24.9521
Li 10.5998 16.6244 24.9521
Li 8.9690 18.2552 24.9521
Li 5.7076 18.2552 24.9521
Li 7.3383 19.8859 24.9521
Li 10.5998 19.8859 24.9521
Li 8.9690 21.5166 24.9521
Li 12.2305 21.5166 24.9521
O 4.0768 1.9478 26.1052
O 0.8154 1.9478 26.1052
O 4.0768 5.2093 26.1052
O 7.3383 5.2093 26.1052
O 4.0768 8.4708 26.1052
O 7.3383 8.4708 26.1052
O 4.0768 11.7322 26.1052
O 7.3383 11.7322 26.1052
O 7.3383 14.9937 26.1052
O 10.5998 14.9937 26.1052
O 7.3383 18.2552 26.1052
O 10.5998 18.2552 26.1052
O 7.3383 21.5166 26.1052
O 10.5998 21.5166 26.1052
