432
XYZ file generated by QuantumATK for match 48
Li 0.2261 -0.2261 1.0000
Li 3.1660 -0.2261 1.0000
Li 6.1058 -0.2261 1.0000
Li 9.0457 -0.2261 1.0000
F 1.6961 -1.6961 1.0000
F 4.6359 -1.6961 1.0000
F 7.5758 -1.6961 1.0000
F 10.5156 -1.6961 1.0000
Li 0.2261 -3.1660 1.0000
Li 3.1660 -3.1660 1.0000
Li 6.1058 -3.1660 1.0000
Li 9.0457 -3.1660 1.0000
F 1.6961 -4.6359 1.0000
F 4.6359 -4.6359 1.0000
F 7.5758 -4.6359 1.0000
F 10.5156 -4.6359 1.0000
Li 0.2261 -6.1058 1.0000
Li 3.1660 -6.1058 1.0000
Li 6.1058 -6.1058 1.0000
Li 9.0457 -6.1058 1.0000
F 1.6961 -7.5758 1.0000
F 4.6359 -7.5758 1.0000
F 7.5758 -7.5758 1.0000
F 10.5156 -7.5758 1.0000
Li 0.2261 -9.0457 1.0000
Li 3.1660 -9.0457 1.0000
Li 6.1058 -9.0457 1.0000
Li 9.0457 -9.0457 1.0000
F 1.6961 -10.5156 1.0000
F 4.6359 -10.5156 1.0000
F 7.5758 -10.5156 1.0000
F 10.5156 -10.5156 1.0000
F 0.2261 -0.2261 3.0086
F 3.1660 -0.2261 3.0086
F 6.1058 -0.2261 3.0086
F 9.0457 -0.2261 3.0086
Li 1.6961 -1.6961 3.0086
Li 4.6359 -1.6961 3.0086
Li 7.5758 -1.6961 3.0086
Li 10.5156 -1.6961 3.0086
F 0.2261 -3.1660 3.0086
F 3.1660 -3.1660 3.0086
F 6.1058 -3.1660 3.0086
F 9.0457 -3.1660 3.0086
Li 1.6961 -4.6359 3.0086
Li 4.6359 -4.6359 3.0086
Li 7.5758 -4.6359 3.0086
Li 10.5156 -4.6359 3.0086
F 0.2261 -6.1058 3.0086
F 3.1660 -6.1058 3.0086
F 6.1058 -6.1058 3.0086
F 9.0457 -6.1058 3.0086
Li 1.6961 -7.5758 3.0086
Li 4.6359 -7.5758 3.0086
Li 7.5758 -7.5758 3.0086
Li 10.5156 -7.5758 3.0086
F 0.2261 -9.0457 3.0086
F 3.1660 -9.0457 3.0086
F 6.1058 -9.0457 3.0086
F 9.0457 -9.0457 3.0086
Li 1.6961 -10.5156 3.0086
Li 4.6359 -10.5156 3.0086
Li 7.5758 -10.5156 3.0086
Li 10.5156 -10.5156 3.0086
Li 0.2261 -0.2261 5.0173
Li 3.1660 -0.2261 5.0173
Li 6.1058 -0.2261 5.0173
Li 9.0457 -0.2261 5.0173
F 1.6961 -1.6961 5.0173
F 4.6359 -1.6961 5.0173
F 7.5758 -1.6961 5.0173
F 10.5156 -1.6961 5.0173
Li 0.2261 -3.1660 5.0173
Li 3.1660 -3.1660 5.0173
Li 6.1058 -3.1660 5.0173
Li 9.0457 -3.1660 5.0173
F 1.6961 -4.6359 5.0173
F 4.6359 -4.6359 5.0173
F 7.5758 -4.6359 5.0173
F 10.5156 -4.6359 5.0173
Li 0.2261 -6.1058 5.0173
Li 3.1660 -6.1058 5.0173
Li 6.1058 -6.1058 5.0173
Li 9.0457 -6.1058 5.0173
F 1.6961 -7.5758 5.0173
F 4.6359 -7.5758 5.0173
F 7.5758 -7.5758 5.0173
F 10.5156 -7.5758 5.0173
Li 0.2261 -9.0457 5.0173
Li 3.1660 -9.0457 5.0173
Li 6.1058 -9.0457 5.0173
Li 9.0457 -9.0457 5.0173
F 1.6961 -10.5156 5.0173
F 4.6359 -10.5156 5.0173
F 7.5758 -10.5156 5.0173
F 10.5156 -10.5156 5.0173
F 0.2261 -0.2261 7.0260
F 3.1660 -0.2261 7.0260
F 6.1058 -0.2261 7.0260
F 9.0457 -0.2261 7.0260
Li 1.6961 -1.6961 7.0260
Li 4.6359 -1.6961 7.0260
Li 7.5758 -1.6961 7.0260
Li 10.5156 -1.6961 7.0260
F 0.2261 -3.1660 7.0260
F 3.1660 -3.1660 7.0260
F 6.1058 -3.1660 7.0260
F 9.0457 -3.1660 7.0260
Li 1.6961 -4.6359 7.0260
Li 4.6359 -4.6359 7.0260
Li 7.5758 -4.6359 7.0260
Li 10.5156 -4.6359 7.0260
F 0.2261 -6.1058 7.0260
F 3.1660 -6.1058 7.0260
F 6.1058 -6.1058 7.0260
F 9.0457 -6.1058 7.0260
Li 1.6961 -7.5758 7.0260
Li 4.6359 -7.5758 7.0260
Li 7.5758 -7.5758 7.0260
Li 10.5156 -7.5758 7.0260
F 0.2261 -9.0457 7.0260
F 3.1660 -9.0457 7.0260
F 6.1058 -9.0457 7.0260
F 9.0457 -9.0457 7.0260
Li 1.6961 -10.5156 7.0260
Li 4.6359 -10.5156 7.0260
Li 7.5758 -10.5156 7.0260
Li 10.5156 -10.5156 7.0260
Li 0.2261 -0.2261 9.0346
Li 3.1660 -0.2261 9.0346
Li 6.1058 -0.2261 9.0346
Li 9.0457 -0.2261 9.0346
F 1.6961 -1.6961 9.0346
F 4.6359 -1.6961 9.0346
F 7.5758 -1.6961 9.0346
F 10.5156 -1.6961 9.0346
Li 0.2261 -3.1660 9.0346
Li 3.1660 -3.1660 9.0346
Li 6.1058 -3.1660 9.0346
Li 9.0457 -3.1660 9.0346
F 1.6961 -4.6359 9.0346
F 4.6359 -4.6359 9.0346
F 7.5758 -4.6359 9.0346
F 10.5156 -4.6359 9.0346
Li 0.2261 -6.1058 9.0346
Li 3.1660 -6.1058 9.0346
Li 6.1058 -6.1058 9.0346
Li 9.0457 -6.1058 9.0346
F 1.6961 -7.5758 9.0346
F 4.6359 -7.5758 9.0346
F 7.5758 -7.5758 9.0346
F 10.5156 -7.5758 9.0346
Li 0.2261 -9.0457 9.0346
Li 3.1660 -9.0457 9.0346
Li 6.1058 -9.0457 9.0346
Li 9.0457 -9.0457 9.0346
F 1.6961 -10.5156 9.0346
F 4.6359 -10.5156 9.0346
F 7.5758 -10.5156 9.0346
F 10.5156 -10.5156 9.0346
F 0.2261 -0.2261 11.0432
F 3.1660 -0.2261 11.0432
F 6.1058 -0.2261 11.0432
F 9.0457 -0.2261 11.0432
Li 1.6961 -1.6961 11.0432
Li 4.6359 -1.6961 11.0432
Li 7.5758 -1.6961 11.0432
Li 10.5156 -1.6961 11.0432
F 0.2261 -3.1660 11.0432
F 3.1660 -3.1660 11.0432
F 6.1058 -3.1660 11.0432
F 9.0457 -3.1660 11.0432
Li 1.6961 -4.6359 11.0432
Li 4.6359 -4.6359 11.0432
Li 7.5758 -4.6359 11.0432
Li 10.5156 -4.6359 11.0432
F 0.2261 -6.1058 11.0432
F 3.1660 -6.1058 11.0432
F 6.1058 -6.1058 11.0432
F 9.0457 -6.1058 11.0432
Li 1.6961 -7.5758 11.0432
Li 4.6359 -7.5758 11.0432
Li 7.5758 -7.5758 11.0432
Li 10.5156 -7.5758 11.0432
F 0.2261 -9.0457 11.0432
F 3.1660 -9.0457 11.0432
F 6.1058 -9.0457 11.0432
F 9.0457 -9.0457 11.0432
Li 1.6961 -10.5156 11.0432
Li 4.6359 -10.5156 11.0432
Li 7.5758 -10.5156 11.0432
Li 10.5156 -10.5156 11.0432
Li 0.2261 -0.2261 13.0519
Li 3.1660 -0.2261 13.0519
Li 6.1058 -0.2261 13.0519
Li 9.0457 -0.2261 13.0519
F 1.6961 -1.6961 13.0519
F 4.6359 -1.6961 13.0519
F 7.5758 -1.6961 13.0519
F 10.5156 -1.6961 13.0519
Li 0.2261 -3.1660 13.0519
Li 3.1660 -3.1660 13.0519
Li 6.1058 -3.1660 13.0519
Li 9.0457 -3.1660 13.0519
F 1.6961 -4.6359 13.0519
F 4.6359 -4.6359 13.0519
F 7.5758 -4.6359 13.0519
F 10.5156 -4.6359 13.0519
Li 0.2261 -6.1058 13.0519
Li 3.1660 -6.1058 13.0519
Li 6.1058 -6.1058 13.0519
Li 9.0457 -6.1058 13.0519
F 1.6961 -7.5758 13.0519
F 4.6359 -7.5758 13.0519
F 7.5758 -7.5758 13.0519
F 10.5156 -7.5758 13.0519
Li 0.2261 -9.0457 13.0519
Li 3.1660 -9.0457 13.0519
Li 6.1058 -9.0457 13.0519
Li 9.0457 -9.0457 13.0519
F 1.6961 -10.5156 13.0519
F 4.6359 -10.5156 13.0519
F 7.5758 -10.5156 13.0519
F 10.5156 -10.5156 13.0519
O 6.1058 -0.2261 14.6504
O 1.5830 -1.1307 14.6504
O 8.8195 -2.0353 14.6504
O 4.2967 -2.9398 14.6504
O 11.5332 -3.8444 14.6504
O 7.0104 -4.7490 14.6504
O 2.4876 -5.6536 14.6504
O 9.7241 -6.5581 14.6504
O 5.2013 -7.4627 14.6504
O 0.6784 -8.3673 14.6504
O 7.9150 -9.2718 14.6504
O 3.3921 -10.1764 14.6504
O 10.6287 -11.0810 14.6504
Li 0.2261 -0.2261 15.8035
Li 9.7241 -0.6784 15.8035
Li 7.4627 -1.1307 15.8035
Li 5.2013 -1.5830 15.8035
Li 2.9398 -2.0353 15.8035
Li 0.6784 -2.4876 15.8035
Li 10.1764 -2.9398 15.8035
Li 7.9150 -3.3921 15.8035
Li 5.6536 -3.8444 15.8035
Li 3.3921 -4.2967 15.8035
Li 1.1307 -4.7490 15.8035
Li 10.6287 -5.2013 15.8035
Li 8.3673 -5.6536 15.8035
Li 6.1058 -6.1058 15.8035
Li 3.8444 -6.5581 15.8035
Li 1.5830 -7.0104 15.8035
Li 11.0810 -7.4627 15.8035
Li 8.8195 -7.9150 15.8035
Li 6.5581 -8.3673 15.8035
Li 4.2967 -8.8195 15.8035
Li 2.0353 -9.2718 15.8035
Li 11.5332 -9.7241 15.8035
Li 9.2718 -10.1764 15.8035
Li 7.0104 -10.6287 15.8035
Li 4.7490 -11.0810 15.8035
Li 2.4876 -11.5332 15.8035
O 3.8444 -0.6784 16.9566
O 11.0810 -1.5830 16.9566
O 6.5581 -2.4876 16.9566
O 2.0353 -3.3921 16.9566
O 9.2718 -4.2967 16.9566
O 4.7490 -5.2013 16.9566
O 0.2261 -6.1058 16.9566
O 7.4627 -7.0104 16.9566
O 2.9398 -7.9150 16.9566
O 10.1764 -8.8195 16.9566
O 5.6536 -9.7241 16.9566
O 1.1307 -10.6287 16.9566
O 8.3673 -11.5332 16.9566
Li 0.2261 -0.2261 18.1097
Li 9.7241 -0.6784 18.1097
Li 7.4627 -1.1307 18.1097
Li 5.2013 -1.5830 18.1097
Li 2.9398 -2.0353 18.1097
Li 0.6784 -2.4876 18.1097
Li 10.1764 -2.9398 18.1097
Li 7.9150 -3.3921 18.1097
Li 5.6536 -3.8444 18.1097
Li 3.3921 -4.2967 18.1097
Li 1.1307 -4.7490 18.1097
Li 10.6287 -5.2013 18.1097
Li 8.3673 -5.6536 18.1097
Li 6.1058 -6.1058 18.1097
Li 3.8444 -6.5581 18.1097
Li 1.5830 -7.0104 18.1097
Li 11.0810 -7.4627 18.1097
Li 8.8195 -7.9150 18.1097
Li 6.5581 -8.3673 18.1097
Li 4.2967 -8.8195 18.1097
Li 2.0353 -9.2718 18.1097
Li 11.5332 -9.7241 18.1097
Li 9.2718 -10.1764 18.1097
Li 7.0104 -10.6287 18.1097
Li 4.7490 -11.0810 18.1097
Li 2.4876 -11.5332 18.1097
O 6.1058 -0.2261 19.2628
O 1.5830 -1.1307 19.2628
O 8.8195 -2.0353 19.2628
O 4.2967 -2.9398 19.2628
O 11.5332 -3.8444 19.2628
O 7.0104 -4.7490 19.2628
O 2.4876 -5.6536 19.2628
O 9.7241 -6.5581 19.2628
O 5.2013 -7.4627 19.2628
O 0.6784 -8.3673 19.2628
O 7.9150 -9.2718 19.2628
O 3.3921 -10.1764 19.2628
O 10.6287 -11.0810 19.2628
Li 0.2261 -0.2261 20.4159
Li 9.7241 -0.6784 20.4159
Li 7.4627 -1.1307 20.4159
Li 5.2013 -1.5830 20.4159
Li 2.9398 -2.0353 20.4159
Li 0.6784 -2.4876 20.4159
Li 10.1764 -2.9398 20.4159
Li 7.9150 -3.3921 20.4159
Li 5.6536 -3.8444 20.4159
Li 3.3921 -4.2967 20.4159
Li 1.1307 -4.7490 20.4159
Li 10.6287 -5.2013 20.4159
Li 8.3673 -5.6536 20.4159
Li 6.1058 -6.1058 20.4159
Li 3.8444 -6.5581 20.4159
Li 1.5830 -7.0104 20.4159
Li 11.0810 -7.4627 20.4159
Li 8.8195 -7.9150 20.4159
Li 6.5581 -8.3673 20.4159
Li 4.2967 -8.8195 20.4159
Li 2.0353 -9.2718 20.4159
Li 11.5332 -9.7241 20.4159
Li 9.2718 -10.1764 20.4159
Li 7.0104 -10.6287 20.4159
Li 4.7490 -11.0810 20.4159
Li 2.4876 -11.5332 20.4159
O 3.8444 -0.6784 21.5690
O 11.0810 -1.5830 21.5690
O 6.5581 -2.4876 21.5690
O 2.0353 -3.3921 21.5690
O 9.2718 -4.2967 21.5690
O 4.7490 -5.2013 21.5690
O 0.2261 -6.1058 21.5690
O 7.4627 -7.0104 21.5690
O 2.9398 -7.9150 21.5690
O 10.1764 -8.8195 21.5690
O 5.6536 -9.7241 21.5690
O 1.1307 -10.6287 21.5690
O 8.3673 -11.5332 21.5690
Li 0.2261 -0.2261 22.7222
Li 9.7241 -0.6784 22.7222
Li 7.4627 -1.1307 22.7222
Li 5.2013 -1.5830 22.7222
Li 2.9398 -2.0353 22.7222
Li 0.6784 -2.4876 22.7222
Li 10.1764 -2.9398 22.7222
Li 7.9150 -3.3921 22.7222
Li 5.6536 -3.8444 22.7222
Li 3.3921 -4.2967 22.7222
Li 1.1307 -4.7490 22.7222
Li 10.6287 -5.2013 22.7222
Li 8.3673 -5.6536 22.7222
Li 6.1058 -6.1058 22.7222
Li 3.8444 -6.5581 22.7222
Li 1.5830 -7.0104 22.7222
Li 11.0810 -7.4627 22.7222
Li 8.8195 -7.9150 22.7222
Li 6.5581 -8.3673 22.7222
Li 4.2967 -8.8195 22.7222
Li 2.0353 -9.2718 22.7222
Li 11.5332 -9.7241 22.7222
Li 9.2718 -10.1764 22.7222
Li 7.0104 -10.6287 22.7222
Li 4.7490 -11.0810 22.7222
Li 2.4876 -11.5332 22.7222
O 6.1058 -0.2261 23.8753
O 1.5830 -1.1307 23.8753
O 8.8195 -2.0353 23.8753
O 4.2967 -2.9398 23.8753
O 11.5332 -3.8444 23.8753
O 7.0104 -4.7490 23.8753
O 2.4876 -5.6536 23.8753
O 9.7241 -6.5581 23.8753
O 5.2013 -7.4627 23.8753
O 0.6784 -8.3673 23.8753
O 7.9150 -9.2718 23.8753
O 3.3921 -10.1764 23.8753
O 10.6287 -11.0810 23.8753
Li 0.2261 -0.2261 25.0284
Li 9.7241 -0.6784 25.0284
Li 7.4627 -1.1307 25.0284
Li 5.2013 -1.5830 25.0284
Li 2.9398 -2.0353 25.0284
Li 0.6784 -2.4876 25.0284
Li 10.1764 -2.9398 25.0284
Li 7.9150 -3.3921 25.0284
Li 5.6536 -3.8444 25.0284
Li 3.3921 -4.2967 25.0284
Li 1.1307 -4.7490 25.0284
Li 10.6287 -5.2013 25.0284
Li 8.3673 -5.6536 25.0284
Li 6.1058 -6.1058 25.0284
Li 3.8444 -6.5581 25.0284
Li 1.5830 -7.0104 25.0284
Li 11.0810 -7.4627 25.0284
Li 8.8195 -7.9150 25.0284
Li 6.5581 -8.3673 25.0284
Li 4.2967 -8.8195 25.0284
Li 2.0353 -9.2718 25.0284
Li 11.5332 -9.7241 25.0284
Li 9.2718 -10.1764 25.0284
Li 7.0104 -10.6287 25.0284
Li 4.7490 -11.0810 25.0284
Li 2.4876 -11.5332 25.0284
O 3.8444 -0.6784 26.1815
O 11.0810 -1.5830 26.1815
O 6.5581 -2.4876 26.1815
O 2.0353 -3.3921 26.1815
O 9.2718 -4.2967 26.1815
O 4.7490 -5.2013 26.1815
O 0.2261 -6.1058 26.1815
O 7.4627 -7.0104 26.1815
O 2.9398 -7.9150 26.1815
O 10.1764 -8.8195 26.1815
O 5.6536 -9.7241 26.1815
O 1.1307 -10.6287 26.1815
O 8.3673 -11.5332 26.1815
