402
XYZ file generated by QuantumATK for match 36
Li 0.3261 0.3261 1.0000
Li 6.8491 0.3261 1.0000
Li 13.3720 0.3261 1.0000
F 4.8922 0.9784 1.0000
F 11.4151 0.9784 1.0000
F 17.9381 0.9784 1.0000
Li 2.9353 1.6307 1.0000
Li 9.4583 1.6307 1.0000
Li 15.9812 1.6307 1.0000
F 0.9784 2.2830 1.0000
F 7.5014 2.2830 1.0000
F 14.0243 2.2830 1.0000
Li 5.5445 2.9353 1.0000
Li 12.0674 2.9353 1.0000
Li 18.5904 2.9353 1.0000
F 3.5876 3.5876 1.0000
F 10.1105 3.5876 1.0000
F 16.6335 3.5876 1.0000
Li 1.6307 4.2399 1.0000
Li 8.1537 4.2399 1.0000
Li 14.6766 4.2399 1.0000
F 6.1968 4.8922 1.0000
F 12.7197 4.8922 1.0000
F 19.2427 4.8922 1.0000
Li 4.2399 5.5445 1.0000
Li 10.7628 5.5445 1.0000
Li 17.2858 5.5445 1.0000
F 2.2830 6.1968 1.0000
F 8.8060 6.1968 1.0000
F 15.3289 6.1968 1.0000
F 0.3261 0.3261 3.0086
F 6.8491 0.3261 3.0086
F 13.3720 0.3261 3.0086
Li 4.8922 0.9784 3.0086
Li 11.4151 0.9784 3.0086
Li 17.9381 0.9784 3.0086
F 2.9353 1.6307 3.0086
F 9.4583 1.6307 3.0086
F 15.9812 1.6307 3.0086
Li 0.9784 2.2830 3.0086
Li 7.5014 2.2830 3.0086
Li 14.0243 2.2830 3.0086
F 5.5445 2.9353 3.0086
F 12.0674 2.9353 3.0086
F 18.5904 2.9353 3.0086
Li 3.5876 3.5876 3.0086
Li 10.1105 3.5876 3.0086
Li 16.6335 3.5876 3.0086
F 1.6307 4.2399 3.0086
F 8.1537 4.2399 3.0086
F 14.6766 4.2399 3.0086
Li 6.1968 4.8922 3.0086
Li 12.7197 4.8922 3.0086
Li 19.2427 4.8922 3.0086
F 4.2399 5.5445 3.0086
F 10.7628 5.5445 3.0086
F 17.2858 5.5445 3.0086
Li 2.2830 6.1968 3.0086
Li 8.8060 6.1968 3.0086
Li 15.3289 6.1968 3.0086
Li 0.3261 0.3261 5.0173
Li 6.8491 0.3261 5.0173
Li 13.3720 0.3261 5.0173
F 4.8922 0.9784 5.0173
F 11.4151 0.9784 5.0173
F 17.9381 0.9784 5.0173
Li 2.9353 1.6307 5.0173
Li 9.4583 1.6307 5.0173
Li 15.9812 1.6307 5.0173
F 0.9784 2.2830 5.0173
F 7.5014 2.2830 5.0173
F 14.0243 2.2830 5.0173
Li 5.5445 2.9353 5.0173
Li 12.0674 2.9353 5.0173
Li 18.5904 2.9353 5.0173
F 3.5876 3.5876 5.0173
F 10.1105 3.5876 5.0173
F 16.6335 3.5876 5.0173
Li 1.6307 4.2399 5.0173
Li 8.1537 4.2399 5.0173
Li 14.6766 4.2399 5.0173
F 6.1968 4.8922 5.0173
F 12.7197 4.8922 5.0173
F 19.2427 4.8922 5.0173
Li 4.2399 5.5445 5.0173
Li 10.7628 5.5445 5.0173
Li 17.2858 5.5445 5.0173
F 2.2830 6.1968 5.0173
F 8.8060 6.1968 5.0173
F 15.3289 6.1968 5.0173
F 0.3261 0.3261 7.0259
F 6.8491 0.3261 7.0259
F 13.3720 0.3261 7.0259
Li 4.8922 0.9784 7.0259
Li 11.4151 0.9784 7.0259
Li 17.9381 0.9784 7.0259
F 2.9353 1.6307 7.0259
F 9.4583 1.6307 7.0259
F 15.9812 1.6307 7.0259
Li 0.9784 2.2830 7.0259
Li 7.5014 2.2830 7.0259
Li 14.0243 2.2830 7.0259
F 5.5445 2.9353 7.0259
F 12.0674 2.9353 7.0259
F 18.5904 2.9353 7.0259
Li 3.5876 3.5876 7.0259
Li 10.1105 3.5876 7.0259
Li 16.6335 3.5876 7.0259
F 1.6307 4.2399 7.0259
F 8.1537 4.2399 7.0259
F 14.6766 4.2399 7.0259
Li 6.1968 4.8922 7.0259
Li 12.7197 4.8922 7.0259
Li 19.2427 4.8922 7.0259
F 4.2399 5.5445 7.0259
F 10.7628 5.5445 7.0259
F 17.2858 5.5445 7.0259
Li 2.2830 6.1968 7.0259
Li 8.8060 6.1968 7.0259
Li 15.3289 6.1968 7.0259
Li 0.3261 0.3261 9.0346
Li 6.8491 0.3261 9.0346
Li 13.3720 0.3261 9.0346
F 4.8922 0.9784 9.0346
F 11.4151 0.9784 9.0346
F 17.9381 0.9784 9.0346
Li 2.9353 1.6307 9.0346
Li 9.4583 1.6307 9.0346
Li 15.9812 1.6307 9.0346
F 0.9784 2.2830 9.0346
F 7.5014 2.2830 9.0346
F 14.0243 2.2830 9.0346
Li 5.5445 2.9353 9.0346
Li 12.0674 2.9353 9.0346
Li 18.5904 2.9353 9.0346
F 3.5876 3.5876 9.0346
F 10.1105 3.5876 9.0346
F 16.6335 3.5876 9.0346
Li 1.6307 4.2399 9.0346
Li 8.1537 4.2399 9.0346
Li 14.6766 4.2399 9.0346
F 6.1968 4.8922 9.0346
F 12.7197 4.8922 9.0346
F 19.2427 4.8922 9.0346
Li 4.2399 5.5445 9.0346
Li 10.7628 5.5445 9.0346
Li 17.2858 5.5445 9.0346
F 2.2830 6.1968 9.0346
F 8.8060 6.1968 9.0346
F 15.3289 6.1968 9.0346
F 0.3261 0.3261 11.0432
F 6.8491 0.3261 11.0432
F 13.3720 0.3261 11.0432
Li 4.8922 0.9784 11.0432
Li 11.4151 0.9784 11.0432
Li 17.9381 0.9784 11.0432
F 2.9353 1.6307 11.0432
F 9.4583 1.6307 11.0432
F 15.9812 1.6307 11.0432
Li 0.9784 2.2830 11.0432
Li 7.5014 2.2830 11.0432
Li 14.0243 2.2830 11.0432
F 5.5445 2.9353 11.0432
F 12.0674 2.9353 11.0432
F 18.5904 2.9353 11.0432
Li 3.5876 3.5876 11.0432
Li 10.1105 3.5876 11.0432
Li 16.6335 3.5876 11.0432
F 1.6307 4.2399 11.0432
F 8.1537 4.2399 11.0432
F 14.6766 4.2399 11.0432
Li 6.1968 4.8922 11.0432
Li 12.7197 4.8922 11.0432
Li 19.2427 4.8922 11.0432
F 4.2399 5.5445 11.0432
F 10.7628 5.5445 11.0432
F 17.2858 5.5445 11.0432
Li 2.2830 6.1968 11.0432
Li 8.8060 6.1968 11.0432
Li 15.3289 6.1968 11.0432
Li 0.3261 0.3261 13.0519
Li 6.8491 0.3261 13.0519
Li 13.3720 0.3261 13.0519
F 4.8922 0.9784 13.0519
F 11.4151 0.9784 13.0519
F 17.9381 0.9784 13.0519
Li 2.9353 1.6307 13.0519
Li 9.4583 1.6307 13.0519
Li 15.9812 1.6307 13.0519
F 0.9784 2.2830 13.0519
F 7.5014 2.2830 13.0519
F 14.0243 2.2830 13.0519
Li 5.5445 2.9353 13.0519
Li 12.0674 2.9353 13.0519
Li 18.5904 2.9353 13.0519
F 3.5876 3.5876 13.0519
F 10.1105 3.5876 13.0519
F 16.6335 3.5876 13.0519
Li 1.6307 4.2399 13.0519
Li 8.1537 4.2399 13.0519
Li 14.6766 4.2399 13.0519
F 6.1968 4.8922 13.0519
F 12.7197 4.8922 13.0519
F 19.2427 4.8922 13.0519
Li 4.2399 5.5445 13.0519
Li 10.7628 5.5445 13.0519
Li 17.2858 5.5445 13.0519
F 2.2830 6.1968 13.0519
F 8.8060 6.1968 13.0519
F 15.3289 6.1968 13.0519
O 1.9569 0.3261 14.6200
O 5.2183 0.3261 14.6200
O 8.4798 0.3261 14.6200
O 11.7413 0.3261 14.6200
O 15.0027 0.3261 14.6200
O 18.2642 0.3261 14.6200
O 1.9569 3.5876 14.6200
O 5.2183 3.5876 14.6200
O 8.4798 3.5876 14.6200
O 11.7413 3.5876 14.6200
O 15.0027 3.5876 14.6200
O 18.2642 3.5876 14.6200
Li 0.3261 0.3261 15.7731
Li 3.5876 0.3261 15.7731
Li 6.8491 0.3261 15.7731
Li 10.1105 0.3261 15.7731
Li 13.3720 0.3261 15.7731
Li 16.6335 0.3261 15.7731
Li 1.9569 1.9569 15.7731
Li 5.2183 1.9569 15.7731
Li 8.4798 1.9569 15.7731
Li 11.7413 1.9569 15.7731
Li 15.0027 1.9569 15.7731
Li 18.2642 1.9569 15.7731
Li 0.3261 3.5876 15.7731
Li 3.5876 3.5876 15.7731
Li 6.8491 3.5876 15.7731
Li 10.1105 3.5876 15.7731
Li 13.3720 3.5876 15.7731
Li 16.6335 3.5876 15.7731
Li 1.9569 5.2183 15.7731
Li 5.2183 5.2183 15.7731
Li 8.4798 5.2183 15.7731
Li 11.7413 5.2183 15.7731
Li 15.0027 5.2183 15.7731
Li 18.2642 5.2183 15.7731
O 0.3261 1.9569 16.9262
O 3.5876 1.9569 16.9262
O 6.8491 1.9569 16.9262
O 10.1105 1.9569 16.9262
O 13.3720 1.9569 16.9262
O 16.6335 1.9569 16.9262
O 0.3261 5.2183 16.9262
O 3.5876 5.2183 16.9262
O 6.8491 5.2183 16.9262
O 10.1105 5.2183 16.9262
O 13.3720 5.2183 16.9262
O 16.6335 5.2183 16.9262
Li 0.3261 0.3261 18.0793
Li 3.5876 0.3261 18.0793
Li 6.8491 0.3261 18.0793
Li 10.1105 0.3261 18.0793
Li 13.3720 0.3261 18.0793
Li 16.6335 0.3261 18.0793
Li 1.9569 1.9569 18.0793
Li 5.2183 1.9569 18.0793
Li 8.4798 1.9569 18.0793
Li 11.7413 1.9569 18.0793
Li 15.0027 1.9569 18.0793
Li 18.2642 1.9569 18.0793
Li 0.3261 3.5876 18.0793
Li 3.5876 3.5876 18.0793
Li 6.8491 3.5876 18.0793
Li 10.1105 3.5876 18.0793
Li 13.3720 3.5876 18.0793
Li 16.6335 3.5876 18.0793
Li 1.9569 5.2183 18.0793
Li 5.2183 5.2183 18.0793
Li 8.4798 5.2183 18.0793
Li 11.7413 5.2183 18.0793
Li 15.0027 5.2183 18.0793
Li 18.2642 5.2183 18.0793
O 1.9569 0.3261 19.2324
O 5.2183 0.3261 19.2324
O 8.4798 0.3261 19.2324
O 11.7413 0.3261 19.2324
O 15.0027 0.3261 19.2324
O 18.2642 0.3261 19.2324
O 1.9569 3.5876 19.2324
O 5.2183 3.5876 19.2324
O 8.4798 3.5876 19.2324
O 11.7413 3.5876 19.2324
O 15.0027 3.5876 19.2324
O 18.2642 3.5876 19.2324
Li 0.3261 0.3261 20.3855
Li 3.5876 0.3261 20.3855
Li 6.8491 0.3261 20.3855
Li 10.1105 0.3261 20.3855
Li 13.3720 0.3261 20.3855
Li 16.6335 0.3261 20.3855
Li 1.9569 1.9569 20.3855
Li 5.2183 1.9569 20.3855
Li 8.4798 1.9569 20.3855
Li 11.7413 1.9569 20.3855
Li 15.0027 1.9569 20.3855
Li 18.2642 1.9569 20.3855
Li 0.3261 3.5876 20.3855
Li 3.5876 3.5876 20.3855
Li 6.8491 3.5876 20.3855
Li 10.1105 3.5876 20.3855
Li 13.3720 3.5876 20.3855
Li 16.6335 3.5876 20.3855
Li 1.9569 5.2183 20.3855
Li 5.2183 5.2183 20.3855
Li 8.4798 5.2183 20.3855
Li 11.7413 5.2183 20.3855
Li 15.0027 5.2183 20.3855
Li 18.2642 5.2183 20.3855
O 0.3261 1.9569 21.5386
O 3.5876 1.9569 21.5386
O 6.8491 1.9569 21.5386
O 10.1105 1.9569 21.5386
O 13.3720 1.9569 21.5386
O 16.6335 1.9569 21.5386
O 0.3261 5.2183 21.5386
O 3.5876 5.2183 21.5386
O 6.8491 5.2183 21.5386
O 10.1105 5.2183 21.5386
O 13.3720 5.2183 21.5386
O 16.6335 5.2183 21.5386
Li 0.3261 0.3261 22.6917
Li 3.5876 0.3261 22.6917
Li 6.8491 0.3261 22.6917
Li 10.1105 0.3261 22.6917
Li 13.3720 0.3261 22.6917
Li 16.6335 0.3261 22.6917
Li 1.9569 1.9569 22.6917
Li 5.2183 1.9569 22.6917
Li 8.4798 1.9569 22.6917
Li 11.7413 1.9569 22.6917
Li 15.0027 1.9569 22.6917
Li 18.2642 1.9569 22.6917
Li 0.3261 3.5876 22.6917
Li 3.5876 3.5876 22.6917
Li 6.8491 3.5876 22.6917
Li 10.1105 3.5876 22.6917
Li 13.3720 3.5876 22.6917
Li 16.6335 3.5876 22.6917
Li 1.9569 5.2183 22.6917
Li 5.2183 5.2183 22.6917
Li 8.4798 5.2183 22.6917
Li 11.7413 5.2183 22.6917
Li 15.0027 5.2183 22.6917
Li 18.2642 5.2183 22.6917
O 1.9569 0.3261 23.8448
O 5.2183 0.3261 23.8448
O 8.4798 0.3261 23.8448
O 11.7413 0.3261 23.8448
O 15.0027 0.3261 23.8448
O 18.2642 0.3261 23.8448
O 1.9569 3.5876 23.8448
O 5.2183 3.5876 23.8448
O 8.4798 3.5876 23.8448
O 11.7413 3.5876 23.8448
O 15.0027 3.5876 23.8448
O 18.2642 3.5876 23.8448
Li 0.3261 0.3261 24.9979
Li 3.5876 0.3261 24.9979
Li 6.8491 0.3261 24.9979
Li 10.1105 0.3261 24.9979
Li 13.3720 0.3261 24.9979
Li 16.6335 0.3261 24.9979
Li 1.9569 1.9569 24.9979
Li 5.2183 1.9569 24.9979
Li 8.4798 1.9569 24.9979
Li 11.7413 1.9569 24.9979
Li 15.0027 1.9569 24.9979
Li 18.2642 1.9569 24.9979
Li 0.3261 3.5876 24.9979
Li 3.5876 3.5876 24.9979
Li 6.8491 3.5876 24.9979
Li 10.1105 3.5876 24.9979
Li 13.3720 3.5876 24.9979
Li 16.6335 3.5876 24.9979
Li 1.9569 5.2183 24.9979
Li 5.2183 5.2183 24.9979
Li 8.4798 5.2183 24.9979
Li 11.7413 5.2183 24.9979
Li 15.0027 5.2183 24.9979
Li 18.2642 5.2183 24.9979
O 0.3261 1.9569 26.1510
O 3.5876 1.9569 26.1510
O 6.8491 1.9569 26.1510
O 10.1105 1.9569 26.1510
O 13.3720 1.9569 26.1510
O 16.6335 1.9569 26.1510
O 0.3261 5.2183 26.1510
O 3.5876 5.2183 26.1510
O 6.8491 5.2183 26.1510
O 10.1105 5.2183 26.1510
O 13.3720 5.2183 26.1510
O 16.6335 5.2183 26.1510
