698
XYZ file generated by QuantumATK for match 21
Li 0.4942 0.1675 1.0000
F 7.7475 0.5025 1.0000
Li 3.2414 0.8376 1.0000
F 10.4947 1.1726 1.0000
Li 5.9886 1.5076 1.0000
F 1.4825 1.8426 1.0000
Li 8.7358 2.1777 1.0000
F 4.2297 2.5127 1.0000
Li 11.4830 2.8477 1.0000
F 6.9769 3.1827 1.0000
Li 2.4708 3.5178 1.0000
F 9.7241 3.8528 1.0000
Li 5.2180 4.1878 1.0000
F 12.4713 4.5228 1.0000
Li 7.9652 4.8579 1.0000
F 3.4591 5.1929 1.0000
Li 10.7124 5.5279 1.0000
F 6.2063 5.8629 1.0000
Li 1.7003 6.1980 1.0000
F 8.9535 6.5330 1.0000
Li 4.4475 6.8680 1.0000
F 11.7008 7.2030 1.0000
Li 7.1947 7.5381 1.0000
F 2.6886 7.8731 1.0000
Li 9.9419 8.2081 1.0000
F 5.4358 8.5431 1.0000
Li 12.6891 8.8782 1.0000
F 8.1830 9.2132 1.0000
Li 3.6769 9.5482 1.0000
F 10.9302 9.8832 1.0000
Li 6.4241 10.2183 1.0000
F 13.6774 10.5533 1.0000
Li 9.1713 10.8883 1.0000
F 4.6652 11.2233 1.0000
Li 11.9185 11.5584 1.0000
F 7.4124 11.8934 1.0000
Li 2.9063 12.2284 1.0000
F 10.1596 12.5634 1.0000
Li 5.6536 12.8985 1.0000
F 12.9068 13.2335 1.0000
Li 8.4008 13.5685 1.0000
F 3.8947 13.9035 1.0000
Li 11.1480 14.2386 1.0000
F 6.6419 14.5736 1.0000
Li 13.8952 14.9086 1.0000
F 9.3891 15.2436 1.0000
Li 4.8830 15.5787 1.0000
F 12.1363 15.9137 1.0000
Li 7.6302 16.2487 1.0000
F 14.8835 16.5837 1.0000
Li 10.3774 16.9188 1.0000
F 5.8713 17.2538 1.0000
Li 13.1246 17.5888 1.0000
F 8.6185 17.9238 1.0000
F 0.4942 0.1675 3.0086
Li 7.7475 0.5025 3.0086
F 3.2414 0.8376 3.0086
Li 10.4947 1.1726 3.0086
F 5.9886 1.5076 3.0086
Li 1.4825 1.8426 3.0086
F 8.7358 2.1777 3.0086
Li 4.2297 2.5127 3.0086
F 11.4830 2.8477 3.0086
Li 6.9769 3.1827 3.0086
F 2.4708 3.5178 3.0086
Li 9.7241 3.8528 3.0086
F 5.2180 4.1878 3.0086
Li 12.4713 4.5228 3.0086
F 7.9652 4.8579 3.0086
Li 3.4591 5.1929 3.0086
F 10.7124 5.5279 3.0086
Li 6.2063 5.8629 3.0086
F 1.7003 6.1980 3.0086
Li 8.9535 6.5330 3.0086
F 4.4475 6.8680 3.0086
Li 11.7008 7.2030 3.0086
F 7.1947 7.5381 3.0086
Li 2.6886 7.8731 3.0086
F 9.9419 8.2081 3.0086
Li 5.4358 8.5431 3.0086
F 12.6891 8.8782 3.0086
Li 8.1830 9.2132 3.0086
F 3.6769 9.5482 3.0086
Li 10.9302 9.8832 3.0086
F 6.4241 10.2183 3.0086
Li 13.6774 10.5533 3.0086
F 9.1713 10.8883 3.0086
Li 4.6652 11.2233 3.0086
F 11.9185 11.5584 3.0086
Li 7.4124 11.8934 3.0086
F 2.9063 12.2284 3.0086
Li 10.1596 12.5634 3.0086
F 5.6536 12.8985 3.0086
Li 12.9068 13.2335 3.0086
F 8.4008 13.5685 3.0086
Li 3.8947 13.9035 3.0086
F 11.1480 14.2386 3.0086
Li 6.6419 14.5736 3.0086
F 13.8952 14.9086 3.0086
Li 9.3891 15.2436 3.0086
F 4.8830 15.5787 3.0086
Li 12.1363 15.9137 3.0086
F 7.6302 16.2487 3.0086
Li 14.8835 16.5837 3.0086
F 10.3774 16.9188 3.0086
Li 5.8713 17.2538 3.0086
F 13.1246 17.5888 3.0086
Li 8.6185 17.9238 3.0086
Li 0.4942 0.1675 5.0173
F 7.7475 0.5025 5.0173
Li 3.2414 0.8376 5.0173
F 10.4947 1.1726 5.0173
Li 5.9886 1.5076 5.0173
F 1.4825 1.8426 5.0173
Li 8.7358 2.1777 5.0173
F 4.2297 2.5127 5.0173
Li 11.4830 2.8477 5.0173
F 6.9769 3.1827 5.0173
Li 2.4708 3.5178 5.0173
F 9.7241 3.8528 5.0173
Li 5.2180 4.1878 5.0173
F 12.4713 4.5228 5.0173
Li 7.9652 4.8579 5.0173
F 3.4591 5.1929 5.0173
Li 10.7124 5.5279 5.0173
F 6.2063 5.8629 5.0173
Li 1.7003 6.1980 5.0173
F 8.9535 6.5330 5.0173
Li 4.4475 6.8680 5.0173
F 11.7008 7.2030 5.0173
Li 7.1947 7.5381 5.0173
F 2.6886 7.8731 5.0173
Li 9.9419 8.2081 5.0173
F 5.4358 8.5431 5.0173
Li 12.6891 8.8782 5.0173
F 8.1830 9.2132 5.0173
Li 3.6769 9.5482 5.0173
F 10.9302 9.8832 5.0173
Li 6.4241 10.2183 5.0173
F 13.6774 10.5533 5.0173
Li 9.1713 10.8883 5.0173
F 4.6652 11.2233 5.0173
Li 11.9185 11.5584 5.0173
F 7.4124 11.8934 5.0173
Li 2.9063 12.2284 5.0173
F 10.1596 12.5634 5.0173
Li 5.6536 12.8985 5.0173
F 12.9068 13.2335 5.0173
Li 8.4008 13.5685 5.0173
F 3.8947 13.9035 5.0173
Li 11.1480 14.2386 5.0173
F 6.6419 14.5736 5.0173
Li 13.8952 14.9086 5.0173
F 9.3891 15.2436 5.0173
Li 4.8830 15.5787 5.0173
F 12.1363 15.9137 5.0173
Li 7.6302 16.2487 5.0173
F 14.8835 16.5837 5.0173
Li 10.3774 16.9188 5.0173
F 5.8713 17.2538 5.0173
Li 13.1246 17.5888 5.0173
F 8.6185 17.9238 5.0173
F 0.4942 0.1675 7.0259
Li 7.7475 0.5025 7.0259
F 3.2414 0.8376 7.0259
Li 10.4947 1.1726 7.0259
F 5.9886 1.5076 7.0259
Li 1.4825 1.8426 7.0259
F 8.7358 2.1777 7.0259
Li 4.2297 2.5127 7.0259
F 11.4830 2.8477 7.0259
Li 6.9769 3.1827 7.0259
F 2.4708 3.5178 7.0259
Li 9.7241 3.8528 7.0259
F 5.2180 4.1878 7.0259
Li 12.4713 4.5228 7.0259
F 7.9652 4.8579 7.0259
Li 3.4591 5.1929 7.0259
F 10.7124 5.5279 7.0259
Li 6.2063 5.8629 7.0259
F 1.7003 6.1980 7.0259
Li 8.9535 6.5330 7.0259
F 4.4475 6.8680 7.0259
Li 11.7008 7.2030 7.0259
F 7.1947 7.5381 7.0259
Li 2.6886 7.8731 7.0259
F 9.9419 8.2081 7.0259
Li 5.4358 8.5431 7.0259
F 12.6891 8.8782 7.0259
Li 8.1830 9.2132 7.0259
F 3.6769 9.5482 7.0259
Li 10.9302 9.8832 7.0259
F 6.4241 10.2183 7.0259
Li 13.6774 10.5533 7.0259
F 9.1713 10.8883 7.0259
Li 4.6652 11.2233 7.0259
F 11.9185 11.5584 7.0259
Li 7.4124 11.8934 7.0259
F 2.9063 12.2284 7.0259
Li 10.1596 12.5634 7.0259
F 5.6536 12.8985 7.0259
Li 12.9068 13.2335 7.0259
F 8.4008 13.5685 7.0259
Li 3.8947 13.9035 7.0259
F 11.1480 14.2386 7.0259
Li 6.6419 14.5736 7.0259
F 13.8952 14.9086 7.0259
Li 9.3891 15.2436 7.0259
F 4.8830 15.5787 7.0259
Li 12.1363 15.9137 7.0259
F 7.6302 16.2487 7.0259
Li 14.8835 16.5837 7.0259
F 10.3774 16.9188 7.0259
Li 5.8713 17.2538 7.0259
F 13.1246 17.5888 7.0259
Li 8.6185 17.9238 7.0259
Li 0.4942 0.1675 9.0346
F 7.7475 0.5025 9.0346
Li 3.2414 0.8376 9.0346
F 10.4947 1.1726 9.0346
Li 5.9886 1.5076 9.0346
F 1.4825 1.8426 9.0346
Li 8.7358 2.1777 9.0346
F 4.2297 2.5127 9.0346
Li 11.4830 2.8477 9.0346
F 6.9769 3.1827 9.0346
Li 2.4708 3.5178 9.0346
F 9.7241 3.8528 9.0346
Li 5.2180 4.1878 9.0346
F 12.4713 4.5228 9.0346
Li 7.9652 4.8579 9.0346
F 3.4591 5.1929 9.0346
Li 10.7124 5.5279 9.0346
F 6.2063 5.8629 9.0346
Li 1.7003 6.1980 9.0346
F 8.9535 6.5330 9.0346
Li 4.4475 6.8680 9.0346
F 11.7008 7.2030 9.0346
Li 7.1947 7.5381 9.0346
F 2.6886 7.8731 9.0346
Li 9.9419 8.2081 9.0346
F 5.4358 8.5431 9.0346
Li 12.6891 8.8782 9.0346
F 8.1830 9.2132 9.0346
Li 3.6769 9.5482 9.0346
F 10.9302 9.8832 9.0346
Li 6.4241 10.2183 9.0346
F 13.6774 10.5533 9.0346
Li 9.1713 10.8883 9.0346
F 4.6652 11.2233 9.0346
Li 11.9185 11.5584 9.0346
F 7.4124 11.8934 9.0346
Li 2.9063 12.2284 9.0346
F 10.1596 12.5634 9.0346
Li 5.6536 12.8985 9.0346
F 12.9068 13.2335 9.0346
Li 8.4008 13.5685 9.0346
F 3.8947 13.9035 9.0346
Li 11.1480 14.2386 9.0346
F 6.6419 14.5736 9.0346
Li 13.8952 14.9086 9.0346
F 9.3891 15.2436 9.0346
Li 4.8830 15.5787 9.0346
F 12.1363 15.9137 9.0346
Li 7.6302 16.2487 9.0346
F 14.8835 16.5837 9.0346
Li 10.3774 16.9188 9.0346
F 5.8713 17.2538 9.0346
Li 13.1246 17.5888 9.0346
F 8.6185 17.9238 9.0346
F 0.4942 0.1675 11.0432
Li 7.7475 0.5025 11.0432
F 3.2414 0.8376 11.0432
Li 10.4947 1.1726 11.0432
F 5.9886 1.5076 11.0432
Li 1.4825 1.8426 11.0432
F 8.7358 2.1777 11.0432
Li 4.2297 2.5127 11.0432
F 11.4830 2.8477 11.0432
Li 6.9769 3.1827 11.0432
F 2.4708 3.5178 11.0432
Li 9.7241 3.8528 11.0432
F 5.2180 4.1878 11.0432
Li 12.4713 4.5228 11.0432
F 7.9652 4.8579 11.0432
Li 3.4591 5.1929 11.0432
F 10.7124 5.5279 11.0432
Li 6.2063 5.8629 11.0432
F 1.7003 6.1980 11.0432
Li 8.9535 6.5330 11.0432
F 4.4475 6.8680 11.0432
Li 11.7008 7.2030 11.0432
F 7.1947 7.5381 11.0432
Li 2.6886 7.8731 11.0432
F 9.9419 8.2081 11.0432
Li 5.4358 8.5431 11.0432
F 12.6891 8.8782 11.0432
Li 8.1830 9.2132 11.0432
F 3.6769 9.5482 11.0432
Li 10.9302 9.8832 11.0432
F 6.4241 10.2183 11.0432
Li 13.6774 10.5533 11.0432
F 9.1713 10.8883 11.0432
Li 4.6652 11.2233 11.0432
F 11.9185 11.5584 11.0432
Li 7.4124 11.8934 11.0432
F 2.9063 12.2284 11.0432
Li 10.1596 12.5634 11.0432
F 5.6536 12.8985 11.0432
Li 12.9068 13.2335 11.0432
F 8.4008 13.5685 11.0432
Li 3.8947 13.9035 11.0432
F 11.1480 14.2386 11.0432
Li 6.6419 14.5736 11.0432
F 13.8952 14.9086 11.0432
Li 9.3891 15.2436 11.0432
F 4.8830 15.5787 11.0432
Li 12.1363 15.9137 11.0432
F 7.6302 16.2487 11.0432
Li 14.8835 16.5837 11.0432
F 10.3774 16.9188 11.0432
Li 5.8713 17.2538 11.0432
F 13.1246 17.5888 11.0432
Li 8.6185 17.9238 11.0432
Li 0.4942 0.1675 13.0519
F 7.7475 0.5025 13.0519
Li 3.2414 0.8376 13.0519
F 10.4947 1.1726 13.0519
Li 5.9886 1.5076 13.0519
F 1.4825 1.8426 13.0519
Li 8.7358 2.1777 13.0519
F 4.2297 2.5127 13.0519
Li 11.4830 2.8477 13.0519
F 6.9769 3.1827 13.0519
Li 2.4708 3.5178 13.0519
F 9.7241 3.8528 13.0519
Li 5.2180 4.1878 13.0519
F 12.4713 4.5228 13.0519
Li 7.9652 4.8579 13.0519
F 3.4591 5.1929 13.0519
Li 10.7124 5.5279 13.0519
F 6.2063 5.8629 13.0519
Li 1.7003 6.1980 13.0519
F 8.9535 6.5330 13.0519
Li 4.4475 6.8680 13.0519
F 11.7008 7.2030 13.0519
Li 7.1947 7.5381 13.0519
F 2.6886 7.8731 13.0519
Li 9.9419 8.2081 13.0519
F 5.4358 8.5431 13.0519
Li 12.6891 8.8782 13.0519
F 8.1830 9.2132 13.0519
Li 3.6769 9.5482 13.0519
F 10.9302 9.8832 13.0519
Li 6.4241 10.2183 13.0519
F 13.6774 10.5533 13.0519
Li 9.1713 10.8883 13.0519
F 4.6652 11.2233 13.0519
Li 11.9185 11.5584 13.0519
F 7.4124 11.8934 13.0519
Li 2.9063 12.2284 13.0519
F 10.1596 12.5634 13.0519
Li 5.6536 12.8985 13.0519
F 12.9068 13.2335 13.0519
Li 8.4008 13.5685 13.0519
F 3.8947 13.9035 13.0519
Li 11.1480 14.2386 13.0519
F 6.6419 14.5736 13.0519
Li 13.8952 14.9086 13.0519
F 9.3891 15.2436 13.0519
Li 4.8830 15.5787 13.0519
F 12.1363 15.9137 13.0519
Li 7.6302 16.2487 13.0519
F 14.8835 16.5837 13.0519
Li 10.3774 16.9188 13.0519
F 5.8713 17.2538 13.0519
Li 13.1246 17.5888 13.0519
F 8.6185 17.9238 13.0519
O 4.1124 0.6198 14.6475
O 11.3490 1.5244 14.6475
O 6.8261 2.4289 14.6475
O 2.3033 3.3335 14.6475
O 9.5398 4.2381 14.6475
O 5.0170 5.1426 14.6475
O 12.2535 6.0472 14.6475
O 7.7307 6.9518 14.6475
O 3.2079 7.8563 14.6475
O 10.4444 8.7609 14.6475
O 5.9216 9.6655 14.6475
O 13.1581 10.5700 14.6475
O 8.6353 11.4746 14.6475
O 4.1124 12.3792 14.6475
O 11.3490 13.2837 14.6475
O 6.8261 14.1883 14.6475
O 14.0627 15.0929 14.6475
O 9.5398 15.9975 14.6475
O 5.0170 16.9020 14.6475
O 12.2535 17.8066 14.6475
Li 0.4942 0.1675 15.8006
Li 9.9921 0.6198 15.8006
Li 7.7307 1.0721 15.8006
Li 5.4693 1.5244 15.8006
Li 3.2079 1.9766 15.8006
Li 0.9464 2.4289 15.8006
Li 10.4444 2.8812 15.8006
Li 8.1830 3.3335 15.8006
Li 5.9216 3.7858 15.8006
Li 3.6602 4.2381 15.8006
Li 1.3987 4.6904 15.8006
Li 10.8967 5.1426 15.8006
Li 8.6353 5.5949 15.8006
Li 6.3739 6.0472 15.8006
Li 4.1124 6.4995 15.8006
Li 1.8510 6.9518 15.8006
Li 11.3490 7.4041 15.8006
Li 9.0876 7.8563 15.8006
Li 6.8261 8.3086 15.8006
Li 4.5647 8.7609 15.8006
Li 2.3033 9.2132 15.8006
Li 11.8013 9.6655 15.8006
Li 9.5398 10.1178 15.8006
Li 7.2784 10.5700 15.8006
Li 5.0170 11.0223 15.8006
Li 2.7556 11.4746 15.8006
Li 12.2535 11.9269 15.8006
Li 9.9921 12.3792 15.8006
Li 7.7307 12.8315 15.8006
Li 5.4693 13.2837 15.8006
Li 3.2079 13.7360 15.8006
Li 12.7058 14.1883 15.8006
Li 10.4444 14.6406 15.8006
Li 8.1830 15.0929 15.8006
Li 5.9216 15.5452 15.8006
Li 3.6602 15.9975 15.8006
Li 13.1581 16.4497 15.8006
Li 10.8967 16.9020 15.8006
Li 8.6353 17.3543 15.8006
Li 6.3739 17.8066 15.8006
O 6.3739 0.1675 16.9537
O 1.8510 1.0721 16.9537
O 9.0876 1.9766 16.9537
O 4.5647 2.8812 16.9537
O 11.8013 3.7858 16.9537
O 7.2784 4.6904 16.9537
O 2.7556 5.5949 16.9537
O 9.9921 6.4995 16.9537
O 5.4693 7.4041 16.9537
O 12.7058 8.3086 16.9537
O 8.1830 9.2132 16.9537
O 3.6602 10.1178 16.9537
O 10.8967 11.0223 16.9537
O 6.3739 11.9269 16.9537
O 13.6104 12.8315 16.9537
O 9.0876 13.7360 16.9537
O 4.5647 14.6406 16.9537
O 11.8013 15.5452 16.9537
O 7.2784 16.4497 16.9537
O 14.5150 17.3543 16.9537
Li 0.4942 0.1675 18.1068
Li 9.9921 0.6198 18.1068
Li 7.7307 1.0721 18.1068
Li 5.4693 1.5244 18.1068
Li 3.2079 1.9766 18.1068
Li 0.9464 2.4289 18.1068
Li 10.4444 2.8812 18.1068
Li 8.1830 3.3335 18.1068
Li 5.9216 3.7858 18.1068
Li 3.6602 4.2381 18.1068
Li 1.3987 4.6904 18.1068
Li 10.8967 5.1426 18.1068
Li 8.6353 5.5949 18.1068
Li 6.3739 6.0472 18.1068
Li 4.1124 6.4995 18.1068
Li 1.8510 6.9518 18.1068
Li 11.3490 7.4041 18.1068
Li 9.0876 7.8563 18.1068
Li 6.8261 8.3086 18.1068
Li 4.5647 8.7609 18.1068
Li 2.3033 9.2132 18.1068
Li 11.8013 9.6655 18.1068
Li 9.5398 10.1178 18.1068
Li 7.2784 10.5700 18.1068
Li 5.0170 11.0223 18.1068
Li 2.7556 11.4746 18.1068
Li 12.2535 11.9269 18.1068
Li 9.9921 12.3792 18.1068
Li 7.7307 12.8315 18.1068
Li 5.4693 13.2837 18.1068
Li 3.2079 13.7360 18.1068
Li 12.7058 14.1883 18.1068
Li 10.4444 14.6406 18.1068
Li 8.1830 15.0929 18.1068
Li 5.9216 15.5452 18.1068
Li 3.6602 15.9975 18.1068
Li 13.1581 16.4497 18.1068
Li 10.8967 16.9020 18.1068
Li 8.6353 17.3543 18.1068
Li 6.3739 17.8066 18.1068
O 4.1124 0.6198 19.2599
O 11.3490 1.5244 19.2599
O 6.8261 2.4289 19.2599
O 2.3033 3.3335 19.2599
O 9.5398 4.2381 19.2599
O 5.0170 5.1426 19.2599
O 12.2535 6.0472 19.2599
O 7.7307 6.9518 19.2599
O 3.2079 7.8563 19.2599
O 10.4444 8.7609 19.2599
O 5.9216 9.6655 19.2599
O 13.1581 10.5700 19.2599
O 8.6353 11.4746 19.2599
O 4.1124 12.3792 19.2599
O 11.3490 13.2837 19.2599
O 6.8261 14.1883 19.2599
O 14.0627 15.0929 19.2599
O 9.5398 15.9975 19.2599
O 5.0170 16.9020 19.2599
O 12.2535 17.8066 19.2599
Li 0.4942 0.1675 20.4130
Li 9.9921 0.6198 20.4130
Li 7.7307 1.0721 20.4130
Li 5.4693 1.5244 20.4130
Li 3.2079 1.9766 20.4130
Li 0.9464 2.4289 20.4130
Li 10.4444 2.8812 20.4130
Li 8.1830 3.3335 20.4130
Li 5.9216 3.7858 20.4130
Li 3.6602 4.2381 20.4130
Li 1.3987 4.6904 20.4130
Li 10.8967 5.1426 20.4130
Li 8.6353 5.5949 20.4130
Li 6.3739 6.0472 20.4130
Li 4.1124 6.4995 20.4130
Li 1.8510 6.9518 20.4130
Li 11.3490 7.4041 20.4130
Li 9.0876 7.8563 20.4130
Li 6.8261 8.3086 20.4130
Li 4.5647 8.7609 20.4130
Li 2.3033 9.2132 20.4130
Li 11.8013 9.6655 20.4130
Li 9.5398 10.1178 20.4130
Li 7.2784 10.5700 20.4130
Li 5.0170 11.0223 20.4130
Li 2.7556 11.4746 20.4130
Li 12.2535 11.9269 20.4130
Li 9.9921 12.3792 20.4130
Li 7.7307 12.8315 20.4130
Li 5.4693 13.2837 20.4130
Li 3.2079 13.7360 20.4130
Li 12.7058 14.1883 20.4130
Li 10.4444 14.6406 20.4130
Li 8.1830 15.0929 20.4130
Li 5.9216 15.5452 20.4130
Li 3.6602 15.9975 20.4130
Li 13.1581 16.4497 20.4130
Li 10.8967 16.9020 20.4130
Li 8.6353 17.3543 20.4130
Li 6.3739 17.8066 20.4130
O 6.3739 0.1675 21.5661
O 1.8510 1.0721 21.5661
O 9.0876 1.9766 21.5661
O 4.5647 2.8812 21.5661
O 11.8013 3.7858 21.5661
O 7.2784 4.6904 21.5661
O 2.7556 5.5949 21.5661
O 9.9921 6.4995 21.5661
O 5.4693 7.4041 21.5661
O 12.7058 8.3086 21.5661
O 8.1830 9.2132 21.5661
O 3.6602 10.1178 21.5661
O 10.8967 11.0223 21.5661
O 6.3739 11.9269 21.5661
O 13.6104 12.8315 21.5661
O 9.0876 13.7360 21.5661
O 4.5647 14.6406 21.5661
O 11.8013 15.5452 21.5661
O 7.2784 16.4497 21.5661
O 14.5150 17.3543 21.5661
Li 0.4942 0.1675 22.7192
Li 9.9921 0.6198 22.7192
Li 7.7307 1.0721 22.7192
Li 5.4693 1.5244 22.7192
Li 3.2079 1.9766 22.7192
Li 0.9464 2.4289 22.7192
Li 10.4444 2.8812 22.7192
Li 8.1830 3.3335 22.7192
Li 5.9216 3.7858 22.7192
Li 3.6602 4.2381 22.7192
Li 1.3987 4.6904 22.7192
Li 10.8967 5.1426 22.7192
Li 8.6353 5.5949 22.7192
Li 6.3739 6.0472 22.7192
Li 4.1124 6.4995 22.7192
Li 1.8510 6.9518 22.7192
Li 11.3490 7.4041 22.7192
Li 9.0876 7.8563 22.7192
Li 6.8261 8.3086 22.7192
Li 4.5647 8.7609 22.7192
Li 2.3033 9.2132 22.7192
Li 11.8013 9.6655 22.7192
Li 9.5398 10.1178 22.7192
Li 7.2784 10.5700 22.7192
Li 5.0170 11.0223 22.7192
Li 2.7556 11.4746 22.7192
Li 12.2535 11.9269 22.7192
Li 9.9921 12.3792 22.7192
Li 7.7307 12.8315 22.7192
Li 5.4693 13.2837 22.7192
Li 3.2079 13.7360 22.7192
Li 12.7058 14.1883 22.7192
Li 10.4444 14.6406 22.7192
Li 8.1830 15.0929 22.7192
Li 5.9216 15.5452 22.7192
Li 3.6602 15.9975 22.7192
Li 13.1581 16.4497 22.7192
Li 10.8967 16.9020 22.7192
Li 8.6353 17.3543 22.7192
Li 6.3739 17.8066 22.7192
O 4.1124 0.6198 23.8723
O 11.3490 1.5244 23.8723
O 6.8261 2.4289 23.8723
O 2.3033 3.3335 23.8723
O 9.5398 4.2381 23.8723
O 5.0170 5.1426 23.8723
O 12.2535 6.0472 23.8723
O 7.7307 6.9518 23.8723
O 3.2079 7.8563 23.8723
O 10.4444 8.7609 23.8723
O 5.9216 9.6655 23.8723
O 13.1581 10.5700 23.8723
O 8.6353 11.4746 23.8723
O 4.1124 12.3792 23.8723
O 11.3490 13.2837 23.8723
O 6.8261 14.1883 23.8723
O 14.0627 15.0929 23.8723
O 9.5398 15.9975 23.8723
O 5.0170 16.9020 23.8723
O 12.2535 17.8066 23.8723
Li 0.4942 0.1675 25.0254
Li 9.9921 0.6198 25.0254
Li 7.7307 1.0721 25.0254
Li 5.4693 1.5244 25.0254
Li 3.2079 1.9766 25.0254
Li 0.9464 2.4289 25.0254
Li 10.4444 2.8812 25.0254
Li 8.1830 3.3335 25.0254
Li 5.9216 3.7858 25.0254
Li 3.6602 4.2381 25.0254
Li 1.3987 4.6904 25.0254
Li 10.8967 5.1426 25.0254
Li 8.6353 5.5949 25.0254
Li 6.3739 6.0472 25.0254
Li 4.1124 6.4995 25.0254
Li 1.8510 6.9518 25.0254
Li 11.3490 7.4041 25.0254
Li 9.0876 7.8563 25.0254
Li 6.8261 8.3086 25.0254
Li 4.5647 8.7609 25.0254
Li 2.3033 9.2132 25.0254
Li 11.8013 9.6655 25.0254
Li 9.5398 10.1178 25.0254
Li 7.2784 10.5700 25.0254
Li 5.0170 11.0223 25.0254
Li 2.7556 11.4746 25.0254
Li 12.2535 11.9269 25.0254
Li 9.9921 12.3792 25.0254
Li 7.7307 12.8315 25.0254
Li 5.4693 13.2837 25.0254
Li 3.2079 13.7360 25.0254
Li 12.7058 14.1883 25.0254
Li 10.4444 14.6406 25.0254
Li 8.1830 15.0929 25.0254
Li 5.9216 15.5452 25.0254
Li 3.6602 15.9975 25.0254
Li 13.1581 16.4497 25.0254
Li 10.8967 16.9020 25.0254
Li 8.6353 17.3543 25.0254
Li 6.3739 17.8066 25.0254
O 6.3739 0.1675 26.1785
O 1.8510 1.0721 26.1785
O 9.0876 1.9766 26.1785
O 4.5647 2.8812 26.1785
O 11.8013 3.7858 26.1785
O 7.2784 4.6904 26.1785
O 2.7556 5.5949 26.1785
O 9.9921 6.4995 26.1785
O 5.4693 7.4041 26.1785
O 12.7058 8.3086 26.1785
O 8.1830 9.2132 26.1785
O 3.6602 10.1178 26.1785
O 10.8967 11.0223 26.1785
O 6.3739 11.9269 26.1785
O 13.6104 12.8315 26.1785
O 9.0876 13.7360 26.1785
O 4.5647 14.6406 26.1785
O 11.8013 15.5452 26.1785
O 7.2784 16.4497 26.1785
O 14.5150 17.3543 26.1785
