558
XYZ file generated by QuantumATK for match 17
Li 8.3950 0.1284 1.0000
Li 2.7136 0.1284 1.0000
Li 5.5543 0.1284 1.0000
F 1.2933 1.5487 1.0000
F 4.1340 1.5487 1.0000
F 6.9746 1.5487 1.0000
Li 8.3950 2.9691 1.0000
Li 2.7136 2.9691 1.0000
Li 5.5543 2.9691 1.0000
F 1.2933 4.3894 1.0000
F 4.1340 4.3894 1.0000
F 6.9746 4.3894 1.0000
Li 8.3950 5.8097 1.0000
Li 2.7136 5.8097 1.0000
Li 5.5543 5.8097 1.0000
F 1.2933 7.2300 1.0000
F 4.1340 7.2300 1.0000
F 6.9746 7.2300 1.0000
Li 8.3950 8.6504 1.0000
Li 2.7136 8.6504 1.0000
Li 5.5543 8.6504 1.0000
F 1.2933 10.0707 1.0000
F 4.1340 10.0707 1.0000
F 6.9746 10.0707 1.0000
Li 8.3950 11.4910 1.0000
Li 2.7136 11.4910 1.0000
Li 5.5543 11.4910 1.0000
F 1.2933 12.9114 1.0000
F 4.1340 12.9114 1.0000
F 6.9746 12.9114 1.0000
Li 8.3950 14.3317 1.0000
Li 2.7136 14.3317 1.0000
Li 5.5543 14.3317 1.0000
F 1.2933 15.7520 1.0000
F 4.1340 15.7520 1.0000
F 6.9746 15.7520 1.0000
Li 8.3950 17.1724 1.0000
Li 2.7136 17.1724 1.0000
Li 5.5543 17.1724 1.0000
F 1.2933 18.5927 1.0000
F 4.1340 18.5927 1.0000
F 6.9746 18.5927 1.0000
F 8.3950 0.1284 3.0087
F 2.7136 0.1284 3.0087
F 5.5543 0.1284 3.0087
Li 1.2933 1.5487 3.0087
Li 4.1340 1.5487 3.0087
Li 6.9746 1.5487 3.0087
F 8.3950 2.9691 3.0087
F 2.7136 2.9691 3.0087
F 5.5543 2.9691 3.0087
Li 1.2933 4.3894 3.0087
Li 4.1340 4.3894 3.0087
Li 6.9746 4.3894 3.0087
F 8.3950 5.8097 3.0087
F 2.7136 5.8097 3.0087
F 5.5543 5.8097 3.0087
Li 1.2933 7.2300 3.0087
Li 4.1340 7.2300 3.0087
Li 6.9746 7.2300 3.0087
F 8.3950 8.6504 3.0087
F 2.7136 8.6504 3.0087
F 5.5543 8.6504 3.0087
Li 1.2933 10.0707 3.0087
Li 4.1340 10.0707 3.0087
Li 6.9746 10.0707 3.0087
F 8.3950 11.4910 3.0087
F 2.7136 11.4910 3.0087
F 5.5543 11.4910 3.0087
Li 1.2933 12.9114 3.0087
Li 4.1340 12.9114 3.0087
Li 6.9746 12.9114 3.0087
F 8.3950 14.3317 3.0087
F 2.7136 14.3317 3.0087
F 5.5543 14.3317 3.0087
Li 1.2933 15.7520 3.0087
Li 4.1340 15.7520 3.0087
Li 6.9746 15.7520 3.0087
F 8.3950 17.1724 3.0087
F 2.7136 17.1724 3.0087
F 5.5543 17.1724 3.0087
Li 1.2933 18.5927 3.0087
Li 4.1340 18.5927 3.0087
Li 6.9746 18.5927 3.0087
Li 8.3950 0.1284 5.0173
Li 2.7136 0.1284 5.0173
Li 5.5543 0.1284 5.0173
F 1.2933 1.5487 5.0173
F 4.1340 1.5487 5.0173
F 6.9746 1.5487 5.0173
Li 8.3950 2.9691 5.0173
Li 2.7136 2.9691 5.0173
Li 5.5543 2.9691 5.0173
F 1.2933 4.3894 5.0173
F 4.1340 4.3894 5.0173
F 6.9746 4.3894 5.0173
Li 8.3950 5.8097 5.0173
Li 2.7136 5.8097 5.0173
Li 5.5543 5.8097 5.0173
F 1.2933 7.2300 5.0173
F 4.1340 7.2300 5.0173
F 6.9746 7.2300 5.0173
Li 8.3950 8.6504 5.0173
Li 2.7136 8.6504 5.0173
Li 5.5543 8.6504 5.0173
F 1.2933 10.0707 5.0173
F 4.1340 10.0707 5.0173
F 6.9746 10.0707 5.0173
Li 8.3950 11.4910 5.0173
Li 2.7136 11.4910 5.0173
Li 5.5543 11.4910 5.0173
F 1.2933 12.9114 5.0173
F 4.1340 12.9114 5.0173
F 6.9746 12.9114 5.0173
Li 8.3950 14.3317 5.0173
Li 2.7136 14.3317 5.0173
Li 5.5543 14.3317 5.0173
F 1.2933 15.7520 5.0173
F 4.1340 15.7520 5.0173
F 6.9746 15.7520 5.0173
Li 8.3950 17.1724 5.0173
Li 2.7136 17.1724 5.0173
Li 5.5543 17.1724 5.0173
F 1.2933 18.5927 5.0173
F 4.1340 18.5927 5.0173
F 6.9746 18.5927 5.0173
F 8.3950 0.1284 7.0260
F 2.7136 0.1284 7.0260
F 5.5543 0.1284 7.0260
Li 1.2933 1.5487 7.0260
Li 4.1340 1.5487 7.0260
Li 6.9746 1.5487 7.0260
F 8.3950 2.9691 7.0260
F 2.7136 2.9691 7.0260
F 5.5543 2.9691 7.0260
Li 1.2933 4.3894 7.0260
Li 4.1340 4.3894 7.0260
Li 6.9746 4.3894 7.0260
F 8.3950 5.8097 7.0260
F 2.7136 5.8097 7.0260
F 5.5543 5.8097 7.0260
Li 1.2933 7.2300 7.0260
Li 4.1340 7.2300 7.0260
Li 6.9746 7.2300 7.0260
F 8.3950 8.6504 7.0260
F 2.7136 8.6504 7.0260
F 5.5543 8.6504 7.0260
Li 1.2933 10.0707 7.0260
Li 4.1340 10.0707 7.0260
Li 6.9746 10.0707 7.0260
F 8.3950 11.4910 7.0260
F 2.7136 11.4910 7.0260
F 5.5543 11.4910 7.0260
Li 1.2933 12.9114 7.0260
Li 4.1340 12.9114 7.0260
Li 6.9746 12.9114 7.0260
F 8.3950 14.3317 7.0260
F 2.7136 14.3317 7.0260
F 5.5543 14.3317 7.0260
Li 1.2933 15.7520 7.0260
Li 4.1340 15.7520 7.0260
Li 6.9746 15.7520 7.0260
F 8.3950 17.1724 7.0260
F 2.7136 17.1724 7.0260
F 5.5543 17.1724 7.0260
Li 1.2933 18.5927 7.0260
Li 4.1340 18.5927 7.0260
Li 6.9746 18.5927 7.0260
Li 8.3950 0.1284 9.0346
Li 2.7136 0.1284 9.0346
Li 5.5543 0.1284 9.0346
F 1.2933 1.5487 9.0346
F 4.1340 1.5487 9.0346
F 6.9746 1.5487 9.0346
Li 8.3950 2.9691 9.0346
Li 2.7136 2.9691 9.0346
Li 5.5543 2.9691 9.0346
F 1.2933 4.3894 9.0346
F 4.1340 4.3894 9.0346
F 6.9746 4.3894 9.0346
Li 8.3950 5.8097 9.0346
Li 2.7136 5.8097 9.0346
Li 5.5543 5.8097 9.0346
F 1.2933 7.2300 9.0346
F 4.1340 7.2300 9.0346
F 6.9746 7.2300 9.0346
Li 8.3950 8.6504 9.0346
Li 2.7136 8.6504 9.0346
Li 5.5543 8.6504 9.0346
F 1.2933 10.0707 9.0346
F 4.1340 10.0707 9.0346
F 6.9746 10.0707 9.0346
Li 8.3950 11.4910 9.0346
Li 2.7136 11.4910 9.0346
Li 5.5543 11.4910 9.0346
F 1.2933 12.9114 9.0346
F 4.1340 12.9114 9.0346
F 6.9746 12.9114 9.0346
Li 8.3950 14.3317 9.0346
Li 2.7136 14.3317 9.0346
Li 5.5543 14.3317 9.0346
F 1.2933 15.7520 9.0346
F 4.1340 15.7520 9.0346
F 6.9746 15.7520 9.0346
Li 8.3950 17.1724 9.0346
Li 2.7136 17.1724 9.0346
Li 5.5543 17.1724 9.0346
F 1.2933 18.5927 9.0346
F 4.1340 18.5927 9.0346
F 6.9746 18.5927 9.0346
F 8.3950 0.1284 11.0432
F 2.7136 0.1284 11.0432
F 5.5543 0.1284 11.0432
Li 1.2933 1.5487 11.0432
Li 4.1340 1.5487 11.0432
Li 6.9746 1.5487 11.0432
F 8.3950 2.9691 11.0432
F 2.7136 2.9691 11.0432
F 5.5543 2.9691 11.0432
Li 1.2933 4.3894 11.0432
Li 4.1340 4.3894 11.0432
Li 6.9746 4.3894 11.0432
F 8.3950 5.8097 11.0432
F 2.7136 5.8097 11.0432
F 5.5543 5.8097 11.0432
Li 1.2933 7.2300 11.0432
Li 4.1340 7.2300 11.0432
Li 6.9746 7.2300 11.0432
F 8.3950 8.6504 11.0432
F 2.7136 8.6504 11.0432
F 5.5543 8.6504 11.0432
Li 1.2933 10.0707 11.0432
Li 4.1340 10.0707 11.0432
Li 6.9746 10.0707 11.0432
F 8.3950 11.4910 11.0432
F 2.7136 11.4910 11.0432
F 5.5543 11.4910 11.0432
Li 1.2933 12.9114 11.0432
Li 4.1340 12.9114 11.0432
Li 6.9746 12.9114 11.0432
F 8.3950 14.3317 11.0432
F 2.7136 14.3317 11.0432
F 5.5543 14.3317 11.0432
Li 1.2933 15.7520 11.0432
Li 4.1340 15.7520 11.0432
Li 6.9746 15.7520 11.0432
F 8.3950 17.1724 11.0432
F 2.7136 17.1724 11.0432
F 5.5543 17.1724 11.0432
Li 1.2933 18.5927 11.0432
Li 4.1340 18.5927 11.0432
Li 6.9746 18.5927 11.0432
Li 8.3950 0.1284 13.0519
Li 2.7136 0.1284 13.0519
Li 5.5543 0.1284 13.0519
F 1.2933 1.5487 13.0519
F 4.1340 1.5487 13.0519
F 6.9746 1.5487 13.0519
Li 8.3950 2.9691 13.0519
Li 2.7136 2.9691 13.0519
Li 5.5543 2.9691 13.0519
F 1.2933 4.3894 13.0519
F 4.1340 4.3894 13.0519
F 6.9746 4.3894 13.0519
Li 8.3950 5.8097 13.0519
Li 2.7136 5.8097 13.0519
Li 5.5543 5.8097 13.0519
F 1.2933 7.2300 13.0519
F 4.1340 7.2300 13.0519
F 6.9746 7.2300 13.0519
Li 8.3950 8.6504 13.0519
Li 2.7136 8.6504 13.0519
Li 5.5543 8.6504 13.0519
F 1.2933 10.0707 13.0519
F 4.1340 10.0707 13.0519
F 6.9746 10.0707 13.0519
Li 8.3950 11.4910 13.0519
Li 2.7136 11.4910 13.0519
Li 5.5543 11.4910 13.0519
F 1.2933 12.9114 13.0519
F 4.1340 12.9114 13.0519
F 6.9746 12.9114 13.0519
Li 8.3950 14.3317 13.0519
Li 2.7136 14.3317 13.0519
Li 5.5543 14.3317 13.0519
F 1.2933 15.7520 13.0519
F 4.1340 15.7520 13.0519
F 6.9746 15.7520 13.0519
Li 8.3950 17.1724 13.0519
Li 2.7136 17.1724 13.0519
Li 5.5543 17.1724 13.0519
F 1.2933 18.5927 13.0519
F 4.1340 18.5927 13.0519
F 6.9746 18.5927 13.0519
O 0.6032 2.2882 14.5399
O 4.8642 4.7737 14.5399
O 0.6032 7.2593 14.5399
O 4.8642 9.7449 14.5399
O 0.6032 12.2305 14.5399
O 4.8642 14.7160 14.5399
O 0.6032 17.2016 14.5399
O 4.8642 19.6872 14.5399
C 5.9450 0.4480 14.9147
O 5.9450 1.7147 14.9147
C 1.6840 2.9336 14.9147
O 1.6840 4.2003 14.9147
C 5.9450 5.4191 14.9147
O 5.9450 6.6859 14.9147
C 1.6840 7.9047 14.9147
O 1.6840 9.1714 14.9147
C 5.9450 10.3903 14.9147
O 5.9450 11.6570 14.9147
C 1.6840 12.8759 14.9147
O 1.6840 14.1426 14.9147
C 5.9450 15.3614 14.9147
O 5.9450 16.6282 14.9147
C 1.6840 17.8470 14.9147
O 1.6840 19.1138 14.9147
O 2.7649 2.2882 15.2895
O 7.0259 4.7737 15.2895
O 2.7649 7.2593 15.2895
O 7.0259 9.7449 15.2895
O 2.7649 12.2305 15.2895
O 7.0259 14.7160 15.2895
O 2.7649 17.2016 15.2895
O 7.0259 19.6872 15.2895
Li 3.1440 0.3777 15.4296
Li 7.4050 2.8633 15.4296
Li 3.1440 5.3489 15.4296
Li 7.4050 7.8345 15.4296
Li 3.1440 10.3200 15.4296
Li 7.4050 12.8056 15.4296
Li 3.1440 15.2912 15.4296
Li 7.4050 17.7768 15.4296
Li 3.1661 2.3572 17.2939
Li 7.4271 4.8428 17.2939
Li 3.1661 7.3283 17.2939
Li 7.4271 9.8139 17.2939
Li 3.1661 12.2995 17.2939
Li 7.4271 14.7851 17.2939
Li 3.1661 17.2707 17.2939
Li 7.4271 19.7562 17.2939
O 3.5452 0.4468 17.4341
O 7.8062 2.9323 17.4341
O 3.5452 5.4179 17.4341
O 7.8062 7.9035 17.4341
O 3.5452 10.3891 17.4341
O 7.8062 12.8747 17.4341
O 3.5452 15.3602 17.4341
O 7.8062 17.8458 17.4341
O 0.3651 1.0202 17.8088
C 0.3651 2.2869 17.8088
O 4.6261 3.5058 17.8088
C 4.6261 4.7725 17.8088
O 0.3651 5.9914 17.8088
C 0.3651 7.2581 17.8088
O 4.6261 8.4769 17.8088
C 4.6261 9.7437 17.8088
O 0.3651 10.9625 17.8088
C 0.3651 12.2293 17.8088
O 4.6261 13.4481 17.8088
C 4.6261 14.7148 17.8088
O 0.3651 15.9337 17.8088
C 0.3651 17.2004 17.8088
O 4.6261 18.4192 17.8088
C 4.6261 19.6860 17.8088
O 5.7070 0.4468 18.1836
O 1.4460 2.9323 18.1836
O 5.7070 5.4179 18.1836
O 1.4460 7.9035 18.1836
O 5.7070 10.3891 18.1836
O 1.4460 12.8747 18.1836
O 5.7070 15.3602 18.1836
O 1.4460 17.8458 18.1836
Li 6.0860 2.3572 18.3237
Li 1.8251 4.8428 18.3237
Li 6.0860 7.3283 18.3237
Li 1.8251 9.8139 18.3237
Li 6.0860 12.2995 18.3237
Li 1.8251 14.7851 18.3237
Li 6.0860 17.2707 18.3237
Li 1.8251 19.7562 18.3237
Li 6.1082 0.3777 20.1881
Li 1.8472 2.8633 20.1881
Li 6.1082 5.3489 20.1881
Li 1.8472 7.8345 20.1881
Li 6.1082 10.3200 20.1881
Li 1.8472 12.8056 20.1881
Li 6.1082 15.2912 20.1881
Li 1.8472 17.7768 20.1881
O 6.4873 2.2882 20.3282
O 2.2263 4.7737 20.3282
O 6.4873 7.2593 20.3282
O 2.2263 9.7449 20.3282
O 6.4873 12.2305 20.3282
O 2.2263 14.7160 20.3282
O 6.4873 17.2016 20.3282
O 2.2263 19.6872 20.3282
C 3.3071 0.4480 20.7030
O 3.3071 1.7147 20.7030
C 7.5681 2.9336 20.7030
O 7.5681 4.2003 20.7030
C 3.3071 5.4191 20.7030
O 3.3071 6.6859 20.7030
C 7.5681 7.9047 20.7030
O 7.5681 9.1714 20.7030
C 3.3071 10.3903 20.7030
O 3.3071 11.6570 20.7030
C 7.5681 12.8759 20.7030
O 7.5681 14.1426 20.7030
C 3.3071 15.3614 20.7030
O 3.3071 16.6282 20.7030
C 7.5681 17.8470 20.7030
O 7.5681 19.1138 20.7030
O 0.1270 2.2882 21.0778
O 4.3880 4.7737 21.0778
O 0.1270 7.2593 21.0778
O 4.3880 9.7449 21.0778
O 0.1270 12.2305 21.0778
O 4.3880 14.7160 21.0778
O 0.1270 17.2016 21.0778
O 4.3880 19.6872 21.0778
Li 0.5061 0.3777 21.2179
Li 4.7671 2.8633 21.2179
Li 0.5061 5.3489 21.2179
Li 4.7671 7.8345 21.2179
Li 0.5061 10.3200 21.2179
Li 4.7671 12.8056 21.2179
Li 0.5061 15.2912 21.2179
Li 4.7671 17.7768 21.2179
Li 0.5282 2.3572 23.0822
Li 4.7892 4.8428 23.0822
Li 0.5282 7.3283 23.0822
Li 4.7892 9.8139 23.0822
Li 0.5282 12.2995 23.0822
Li 4.7892 14.7851 23.0822
Li 0.5282 17.2707 23.0822
Li 4.7892 19.7562 23.0822
O 0.9073 0.4468 23.2224
O 5.1683 2.9323 23.2224
O 0.9073 5.4179 23.2224
O 5.1683 7.9035 23.2224
O 0.9073 10.3891 23.2224
O 5.1683 12.8747 23.2224
O 0.9073 15.3602 23.2224
O 5.1683 17.8458 23.2224
O 6.2492 1.0202 23.5971
C 6.2492 2.2869 23.5971
O 1.9882 3.5058 23.5971
C 1.9882 4.7725 23.5971
O 6.2492 5.9914 23.5971
C 6.2492 7.2581 23.5971
O 1.9882 8.4769 23.5971
C 1.9882 9.7437 23.5971
O 6.2492 10.9625 23.5971
C 6.2492 12.2293 23.5971
O 1.9882 13.4481 23.5971
C 1.9882 14.7148 23.5971
O 6.2492 15.9337 23.5971
C 6.2492 17.2004 23.5971
O 1.9882 18.4192 23.5971
C 1.9882 19.6860 23.5971
O 3.0691 0.4468 23.9719
O 7.3301 2.9323 23.9719
O 3.0691 5.4179 23.9719
O 7.3301 7.9035 23.9719
O 3.0691 10.3891 23.9719
O 7.3301 12.8747 23.9719
O 3.0691 15.3602 23.9719
O 7.3301 17.8458 23.9719
Li 3.4482 2.3572 24.1120
Li 7.7091 4.8428 24.1120
Li 3.4482 7.3283 24.1120
Li 7.7091 9.8139 24.1120
Li 3.4482 12.2995 24.1120
Li 7.7091 14.7851 24.1120
Li 3.4482 17.2707 24.1120
Li 7.7091 19.7562 24.1120
Li 3.4703 0.3777 25.9764
Li 7.7313 2.8633 25.9764
Li 3.4703 5.3489 25.9764
Li 7.7313 7.8345 25.9764
Li 3.4703 10.3200 25.9764
Li 7.7313 12.8056 25.9764
Li 3.4703 15.2912 25.9764
Li 7.7313 17.7768 25.9764
O 3.8494 2.2882 26.1165
O 8.1104 4.7737 26.1165
O 3.8494 7.2593 26.1165
O 8.1104 9.7449 26.1165
O 3.8494 12.2305 26.1165
O 8.1104 14.7160 26.1165
O 3.8494 17.2016 26.1165
O 8.1104 19.6872 26.1165
C 0.6693 0.4480 26.4913
O 0.6693 1.7147 26.4913
C 4.9302 2.9336 26.4913
O 4.9302 4.2003 26.4913
C 0.6693 5.4191 26.4913
O 0.6693 6.6859 26.4913
C 4.9302 7.9047 26.4913
O 4.9302 9.1714 26.4913
C 0.6693 10.3903 26.4913
O 0.6693 11.6570 26.4913
C 4.9302 12.8759 26.4913
O 4.9302 14.1426 26.4913
C 0.6693 15.3614 26.4913
O 0.6693 16.6282 26.4913
C 4.9302 17.8470 26.4913
O 4.9302 19.1138 26.4913
O 6.0111 2.2882 26.8661
O 1.7501 4.7737 26.8661
O 6.0111 7.2593 26.8661
O 1.7501 9.7449 26.8661
O 6.0111 12.2305 26.8661
O 1.7501 14.7160 26.8661
O 6.0111 17.2016 26.8661
O 1.7501 19.6872 26.8661
Li 6.3902 0.3777 27.0062
Li 2.1292 2.8633 27.0062
Li 6.3902 5.3489 27.0062
Li 2.1292 7.8345 27.0062
Li 6.3902 10.3200 27.0062
Li 2.1292 12.8056 27.0062
Li 6.3902 15.2912 27.0062
Li 2.1292 17.7768 27.0062
Li 6.4123 2.3572 28.8705
Li 2.1513 4.8428 28.8705
Li 6.4123 7.3283 28.8705
Li 2.1513 9.8139 28.8705
Li 6.4123 12.2995 28.8705
Li 2.1513 14.7851 28.8705
Li 6.4123 17.2707 28.8705
Li 2.1513 19.7562 28.8705
O 6.7914 0.4468 29.0107
O 2.5304 2.9323 29.0107
O 6.7914 5.4179 29.0107
O 2.5304 7.9035 29.0107
O 6.7914 10.3891 29.0107
O 2.5304 12.8747 29.0107
O 6.7914 15.3602 29.0107
O 2.5304 17.8458 29.0107
O 3.6113 1.0202 29.3854
C 3.6113 2.2869 29.3854
O 7.8723 3.5058 29.3854
C 7.8723 4.7725 29.3854
O 3.6113 5.9914 29.3854
C 3.6113 7.2581 29.3854
O 7.8723 8.4769 29.3854
C 7.8723 9.7437 29.3854
O 3.6113 10.9625 29.3854
C 3.6113 12.2293 29.3854
O 7.8723 13.4481 29.3854
C 7.8723 14.7148 29.3854
O 3.6113 15.9337 29.3854
C 3.6113 17.2004 29.3854
O 7.8723 18.4192 29.3854
C 7.8723 19.6860 29.3854
